<?xml version="1.0" encoding="UTF-8"?>


<routes xmlns:xsi="http://www.w3.org/2001/XMLSchema-instance">
   <vType    id="car"  maxSpeed="15.00"  length="5.0"  speedDev="0.00"  tau="1.5"   minGap="2.5"   sigma="0.0"  speedFactor="1.0"  jmIgnoreKeepClearTime="-1"   lcOpposite="0"   lcCooperative="0"  lcOvertakeRight="0" lcSpeedGain="0"  laneChangeModel="LC2013" carFollowModel="Krauss"   />

	<vehicle id="1000000000" type="car"   depart=" 0.00" departLane="best" departPos="random" departSpeed="max">
        <route edges="111349534#0 111349534#1 111349534#2 111349534#3 111349534#4 537447926 29149366#0 29149366#1 29149366#2 29149366#3 29149366#4 29149366#5 111429733#0 111429733#1 111429733#2 24245351 111429742#0 111429742#1 8085736 555427591#0 555427591#1 555427591#2 555427591#3 8085739#0 8085739#1 8085739#2 8085739#3 8085739#4 8085739#6"/>
    </vehicle>
    <vehicle id="1000000001" type="car"   depart=" 0.30" departLane="best" departPos="random" departSpeed="max">
        <route edges="111429737#1 111429737#2 111429737#3 111429737#4 111429737#5 -555427591#6 -555427591#5 -555427591#4 -555427591#3 -555427591#2 -555427591#1 -555427591#0 -8085736 -111429742#1 -24245348 24245346#1 -29150895 -24245344"/>
    </vehicle>
    <vehicle id="1000000002" type="car"   depart=" 0.60" departLane="best" departPos="random" departSpeed="max">
        <route edges="-20464340#0 111996091#3 -29149366#5 -29149366#4 -29149366#3 -29149366#2 -29149366#1 -29149366#0 537447928 -111349534#4 -111349534#3 -111349534#2 24648386#0 24648386#1 -29150877#0 -24648387#1"/>
    </vehicle>
    <vehicle id="1000000003" type="car"   depart=" 0.90" departLane="best" departPos="random" departSpeed="max">
        <route edges="8085739#4 158004770 -295972799#1 -295972799#0 -8085742#1 -8085742#0 -555427591#1 -555427591#0 -8085736 -111429742#1 -111429742#0 -24245351 -111429733#2 24648421#0 24648421#1 24648421#2 24648421#3 -24648391#0 29149366#4"/>
    </vehicle>
    <vehicle id="1000000004" type="car"   depart=" 1.20" departLane="best" departPos="random" departSpeed="max">
        <route edges="543589720#1 20457753#1 20457753#2 20457753#3 gneE63 348606781#0 gneE64 539811512#0 539811512#1 539811512#2 24706174#3 24642874#0 24642874#1 24642874#2 24642874#3 24642874#4 24642874#5 -24706084#8 -24706084#7"/>
    </vehicle>
    <vehicle id="1000000005" type="car"   depart=" 1.50" departLane="best" departPos="random" departSpeed="max">
        <route edges="-8085743#0 8085765#2 8085765#3 8085765#4 -111429737#4 -111429737#3 -111429737#2 30889162 111429729#1"/>
    </vehicle>
    <vehicle id="1000000006" type="car"   depart=" 1.80" departLane="best" departPos="random" departSpeed="max">
        <route edges="20464526 29148381#1 29148381#2 -29148381#2 -29148381#1 -20464526 -111607112#8 29148373#0 29148373#1 29148373#2 29148373#3 29148373#4 -661435627#2 25768686 -543592243#3 -25768702#4 25768740 25768691#3 -543592243#4"/>
    </vehicle>
    <vehicle id="1000000007" type="car"   depart=" 2.10" departLane="best" departPos="random" departSpeed="max">
        <route edges="-24647379#3 24647699 661435627#1 25768686"/>
    </vehicle>
    <vehicle id="8" type="car"   depart=" 2.40" departLane="best" departPos="random" departSpeed="max">
        <route edges="-539811512#1 20458177#1 -24635781 -24706174#4 -24706174#3 -24706174#2 -24706174#1 -24706174#0 -20457989 543531130#1 543531432 gneE52 gneE53 20457331#0 -gneE35 111996091#1 111996091#2 111996091#3 111429733#0 111429733#1 111429733#2 566667744 566667738#0 566667738#1 566667738#2 24245156#0 24245156#1 24245156#2 24245156#3 24245169#2"/>
    </vehicle>
    <vehicle id="10" type="car"   depart=" 3.00" departLane="best" departPos="random" departSpeed="max">
        <route edges="20464133#0 20464133#1 20464133#2 -20464340#2 20464340#2 -20464133#2 -20464133#1 -20464133#0 -29148381#9 -29148381#8 -29148381#7 -29148381#6 -24647813#1 -24647813#0 -20464046#3"/>
    </vehicle>
    <vehicle id="11" type="car"   depart=" 3.30" departLane="best" departPos="random" departSpeed="max">
        <route edges="27541025#5 20677663#0 529560216 543406317 -27541025#4 -27541025#3 -27541025#2 gneE14 gneE23 -gneE30 -348427015#8 -348427015#7 -348427015#6 -348427015#5 -348427015#4 -348427015#3 -348427015#2 -348427015#1 -348427015#0 -661435627#4 -661435627#3"/>
    </vehicle>
    <vehicle id="12" type="car"   depart=" 3.60" departLane="best" departPos="random" departSpeed="max">
        <route edges="-537495672#0 -24647379#1 -24647493 20464487#1 20464526 29148381#1 29148381#2 29148381#3 29148381#4 29148381#5 29148381#6 29148381#7 29148381#8 29148381#9 29148381#10 14526777#0 14526777#1 14526777#2 111607112#0"/>
    </vehicle>
    <vehicle id="13" type="car"   depart=" 3.90" departLane="best" departPos="random" departSpeed="max">
        <route edges="8085788#3 8085788#4 -8085654#1 -8085654#0 -622618098 -111998587 111671463 gneE62 gneE61 111683859#0 111683859#1 555429844 348606772#0 -gneE65 348606771 348606777 20458177#0 539811512#1"/>
    </vehicle>
    <vehicle id="14" type="car"   depart=" 4.20" departLane="best" departPos="random" departSpeed="max">
        <route edges="-24647820#1 -24647820#0 -29185405#0 -24647821#0 20457647#4 -111607112#1 -111607112#0 -641796874 -20457686#3"/>
    </vehicle>
    <vehicle id="15" type="car"   depart=" 4.50" departLane="best" departPos="random" departSpeed="max">
        <route edges="543591637 348427015#2 348427015#3 348427015#4 348427015#5 348427015#6 348427015#7 348427015#8 gneE30 348606786#1 -555450161#4 -555450161#3 -555450161#2 -555450161#1 -555450161#0 -14526777#2 -14526777#1 -14526777#0 111607111 641796883#0 641796883#1 641796883#2 641796883#3 641796883#4 641796883#5 8085870#0 8085870#1 111673155#1 111998587 622618098 8085654#0 8085654#1 8085654#2 8085654#3 8085654#4 -24245287 8085736 555427591#0 555427591#1 555427591#2 555427591#3 555427591#4 555427591#5 20172551#0 20172551#1 20172551#2 20172551#3 -24601777"/>
    </vehicle>
    <vehicle id="16" type="car"   depart=" 4.80" departLane="best" departPos="random" departSpeed="max">
        <route edges="-24647803 111607112#5 111607112#6 111607112#7 29148373#0 29148373#1 29148373#2 29148373#3 29148373#4 661435627#3 661435627#4 348427015#0 348427015#1 348427015#2 348427015#3 348427015#4 348427015#5 348427015#6 348427015#7 348427015#8 gneE30 gneE20 -gneE14 27541025#2 27541025#3 27541025#4 27541025#5 27541025#7 27541025#8 27541025#10 27541025#11 27541025#12 -543403920 -24635787 -24706084#17 29151689 20462786#0 20462786#1 20462786#2 166682861#4"/>
    </vehicle>
    <vehicle id="17" type="car"   depart=" 5.10" departLane="best" departPos="random" departSpeed="max">
        <route edges="-8085723#2 -8085723#1 -8085723#0 -555427591#0 -8085736 24245287 -8085654#4 -8085654#3 -8085654#2 -8085654#1 -8085654#0 -622618098 -111998587 111671463 gneE62 gneE61 gneE52 gneE2 112001563#1 112001563#2 112001563#3 543589720#0 543589720#1 20457753#1 20457753#2 -29185244#3 -29185244#2"/>
    </vehicle>
    <vehicle id="18" type="car"   depart=" 5.40" departLane="best" departPos="random" departSpeed="max">
        <route edges="-29185244#7 -29185244#6 -555450161#2 -555450161#1 -555450161#0 111607112#0"/>
    </vehicle>
    <vehicle id="19" type="car"   depart=" 5.70" departLane="best" departPos="random" departSpeed="max">
        <route edges="24642786#1 24635856#1 24642785 -24706084#14 -24706084#13 -24706084#12 -24706084#11 -24706084#9 -24706084#8 -24706084#7 -24706084#6 -24706084#5 -24706084#4 -24706084#3 24706010 166682861#15 -24706180#2 -24706180#1 -24705997"/>
    </vehicle>
    <vehicle id="20" type="car"   depart=" 6.00" departLane="best" departPos="random" departSpeed="max">
        <route edges="-166682861#1 24642841 24642794#0 24642794#1 24642794#2 24642794#3 24642794#4 24642794#5 24642794#6 24642834#1 24642834#2 28046715"/>
    </vehicle>
    <vehicle id="21" type="car"   depart=" 6.30" departLane="best" departPos="random" departSpeed="max">
        <route edges="29121887 -166682861#12 -166682861#11 -166682861#10 -166682861#9 -166682861#8 24642834#0 24642834#1 24642835#0"/>
    </vehicle>
    <vehicle id="22" type="car"   depart=" 6.60" departLane="best" departPos="random" departSpeed="max">
        <route edges="-24647892#0 29148381#3 29148381#4 29148381#5 29148381#6 29148381#7 29148381#8 29148381#9 29148381#10 111607111 641796883#0 641796883#1 641796883#2 641796883#3 641796883#4 641796883#5 111411556#1 gneE55 24706186 555437813 gneE6 555437811#2 7054928#0 7054928#1 -gneE27 24706084#1 24706084#3 24706084#4 24706084#5 24706084#6 24706084#7 24706084#8 24706084#9 24706084#11 24706084#12 24706084#13 24706084#14 24706084#15 24706084#16 24706084#17 24706084#18 20462797 20462780#1 20462780#2 172382419 543556733#1 543556733#2 543556733#3 543556733#4 543556733#5 -gneE11 20462657#0 20462657#1 20462657#2 555452855 348513118"/>
    </vehicle>
    <vehicle id="23" type="car"   depart=" 6.90" departLane="best" departPos="random" departSpeed="max">
        <route edges="-543592243#4 -25768686 661435627#2 -29148373#4 -29148373#3 -29148373#2 -29148373#1 -29148373#0 -111607112#7 -111607112#6"/>
    </vehicle>
    <vehicle id="24" type="car"   depart=" 7.20" departLane="best" departPos="random" departSpeed="max">
        <route edges="24642871 539779507#2 24642874#4 24642874#5 24706084#9 24706084#11 24706084#12 24706084#13 24706084#14 24706084#15 24635791#0 24635791#1 24635791#2 24635791#3 543531129 -27541025#8 -27541025#7 -27541025#5 -27541025#4 -27541025#3 24635768 8033924 -8033924 -24635768 27541025#3 27541025#4"/>
    </vehicle>
    <vehicle id="25" type="car"   depart=" 7.50" departLane="best" departPos="random" departSpeed="max">
        <route edges="-29121886#4 -29121886#3 -29121886#2 -29121886#1 -29121886#0 -166687491#1 -166687491#0 543574675 543575224 543575223#0 543575223#1 543575226 gneE43 543576929#0 112232355#0 112232355#1 543576930 473749069 543576936 543576931 543576938#0 532953763 111481821 543576940 149036979"/>
    </vehicle>
    <vehicle id="26" type="car"   depart=" 7.80" departLane="best" departPos="random" departSpeed="max">
        <route edges="24648397 -24648387#2 -24648387#1 -24648387#0 -24648377#1 516635143 -111349534#3 -20464209#3 -20464209#2 -20464209#1 -20464209#0 29148381#7 29148381#8 29148381#9 29148381#10 14526777#0 14526777#1 14526777#2 555450161#0 555450161#1 555450161#2 555450161#3 -20457805#2 -29185539#0 -20457853#1 -20457853#0 -20457929#0 348427015#8 25768624#0"/>
    </vehicle>
    <vehicle id="28" type="car"   depart=" 8.40" departLane="best" departPos="random" departSpeed="max">
        <route edges="-24652440#0 24652426#3 24652426#4 -24648426#2 29150883#6 29150883#7 -566667744 24245351 111429742#0 111429742#1 8085736 555427591#0 555427591#1 8085742#0 8085742#1 295972799#0 295972799#1 295972799#2 -8085739#2 -8085739#1"/>
    </vehicle>
    <vehicle id="29" type="car"   depart=" 8.70" departLane="best" departPos="random" departSpeed="max">
        <route edges="522114722#3 gneE6 555437811#2 gneE7 gneE8 543531130#0 543531130#1 543531432 gneE52 gneE2 112001563#1 112001563#2 112001563#3 543589720#0 543589720#1 543589720#2 641796874 111607112#0 111607112#1 -20457647#4 24647821#0 29185405#0"/>
    </vehicle>
    <vehicle id="30" type="car"   depart=" 9.00" departLane="best" departPos="random" departSpeed="max">
        <route edges="-20172551#3 -20172551#2 -20172551#1 -20172551#0 -555427591#5 -555427591#4 -555427591#3 -555427591#2 -555427591#1 -555427591#0 -8085736 24245287 -8085654#4 -8085654#3 -8085654#2 -8085654#1 -8085654#0 -622618098 522114722#0 522114722#1 522114722#2 522114722#3 gneE6 555437811#2 7054928#0 7054928#1 -gneE27 24706084#1 24706084#3 24706084#4 24706084#5 24706084#6 24706084#7 24706084#8 24706084#9 -29121886#4 -29121886#3 -29121886#2 24706007#0"/>
    </vehicle>
    <vehicle id="31" type="car"   depart=" 9.30" departLane="best" departPos="random" departSpeed="max">
        <route edges="29148381#7 29148381#8 29148381#9 29148381#10 111607111 641796883#0 641796883#1 641796883#2 641796883#3 641796883#4 641796883#5 8085870#0 8085870#1 111673155#1 111998587 622618098 8085654#0 8085654#1 8085654#2 8085654#3"/>
    </vehicle>
    <vehicle id="32" type="car"   depart=" 9.60" departLane="best" departPos="random" departSpeed="max">
        <route edges="-24245280 -24245277#0 24245272#1 24245156#2 24245156#3 -24245169#1 -24245165 8085765#1 8085743#0 -555427591#2 8085742#0 -581216139"/>
    </vehicle>
    <vehicle id="34" type="car"   depart=" 10.20" departLane="best" departPos="random" departSpeed="max">
        <route edges="-24647827 29185404#1 29185404#2 -24647825#0 -24647374#1 -24647374#0 29185405#2 20457805#0 20457805#1 20457805#2 20457805#3 20457686#1"/>
    </vehicle>
    <vehicle id="35" type="car"   depart=" 10.50" departLane="best" departPos="random" departSpeed="max">
        <route edges="-20464085#0 29149366#5 -111996091#3 -111996091#2 -111996091#1 gneE35 111411556#1 gneE55 24706186 555437813 gneE6 555437811#2 7054928#0 7054928#1 -gneE27 24706084#1 24706084#3 24706084#4 24706084#5 24706084#6 24706084#7 24706084#8 24706084#9 24706084#11 24706084#12 24706084#13 24706084#14 24706084#15 24706084#16 24706084#17 24706084#18 20462797 20462780#1"/>
    </vehicle>
    <vehicle id="36" type="car"   depart=" 10.80" departLane="best" departPos="random" departSpeed="max">
        <route edges="24647808 20464046#5 20464046#6 -24647803 111607112#5 111607112#6 111607112#7 29148373#0 24647379#0 -24647493"/>
    </vehicle>
    <vehicle id="37" type="car"   depart=" 11.10" departLane="best" departPos="random" departSpeed="max">
        <route edges="24245385 111998590#2 543328649 -622618098 -111998587 111671463 gneE62 gneE61 gneE52 gneE2 112001563#1 112001563#2 112001563#3 543589720#0 543589720#1 543589720#2 -20457686#3 -20457686#2 -29185244#4"/>
    </vehicle>
    <vehicle id="38" type="car"   depart=" 11.40" departLane="best" departPos="random" departSpeed="max">
        <route edges="112320672#1 543328651#2 543328651#3 gneE53 gneE54 gneE55 24706186 555437813 gneE6 555437811#2 7054928#0 7054928#1 -gneE27 24706084#1 24706084#3 24706084#4 24706084#5 24706084#6 24706084#7 24706084#8 24706084#9 24706084#11 24706084#12 24706084#13 24706084#14 24706084#15 24706084#16 24706084#17 24706084#18 20462797 20462780#1 20462788#0 20462788#1 20462788#2 20462788#3 166682863#1 -426560729 -20677772#1"/>
    </vehicle>
    <vehicle id="39" type="car"   depart=" 11.70" departLane="best" departPos="random" departSpeed="max">
        <route edges="566667744 566667738#0 8085969 -566789764#0 -566789763 111429742#0 111429742#1 24245287 -8085654#4 -8085654#3 -8085654#2 -8085654#1 -8085654#0 -622618098 522114722#0 20458329#0 20458329#1 20458329#2 543576931 543576938#0 166681455#1 111998590#0"/>
    </vehicle>
    <vehicle id="40" type="car"   depart=" 12.00" departLane="best" departPos="random" departSpeed="max">
        <route edges="-29185405#3 20457805#0 20457805#1 20457805#2 -555450161#3 -29185244#5 -29185244#4 -29185244#3 -29185244#2 -29185244#1 -29185244#0 543328651#1 543328651#2 543328651#3 gneE2 112001563#1"/>
    </vehicle>
    <vehicle id="41" type="car"   depart=" 12.30" departLane="best" departPos="random" departSpeed="max">
        <route edges="20457331#0 8085870#0 8085796 295966814#0 295966814#1 -289880377 295966812#1"/>
    </vehicle>
    <vehicle id="42" type="car"   depart=" 12.60" departLane="best" departPos="random" departSpeed="max">
        <route edges="543575220#0 543575220#1 166682861#4 166682861#5 166682861#6 166682861#7 166682861#8 29121886#0 29121886#1 29121886#2 29121886#3 29121886#4 24706084#11 24706084#12 24706084#13 24706084#14 24706084#15 24635791#0 24635791#1 24635791#2 24635791#3 543531129 -27541025#8 -27541025#7 -27541025#5 -543406317 -529560216"/>
    </vehicle>
    <vehicle id="43" type="car"   depart=" 12.90" departLane="best" departPos="random" departSpeed="max">
        <route edges="24648377#2 -24648386#0 -111349534#1 -24647813#5 -24647813#4 -24647813#3 -24647813#2 29148381#6 29148381#7 29148381#8 29148381#9 29148381#10 111607111 641796883#0 641796883#1 641796883#2 641796883#3 641796883#4 641796883#5 111411556#1 gneE55 24706186 555437813 gneE6 -20458215#3 -20458215#2 24706180#0 -24705997"/>
    </vehicle>
    <vehicle id="44" type="car"   depart=" 13.20" departLane="best" departPos="random" departSpeed="max">
        <route edges="543575220#0 24706004 -166687491#0 543574675 543575224 543575223#0 543575223#1 543575226 29121887"/>
    </vehicle>
    <vehicle id="45" type="car"   depart=" 13.50" departLane="best" departPos="random" departSpeed="max">
        <route edges="29148356#3 25768691#1 25768691#2 25768691#3 -543592243#4 -25768686 661435627#2 -29148373#4 -29148373#3 -29148373#2 -29148373#1 -29148373#0 111607112#8 20464526 29148381#1 29148381#2 29148381#3 29148381#4 29148381#5 29148381#6 29148381#7 29148381#8 29148381#9 29148381#10 111607111 641796883#0 641796883#1 641796883#2 641796883#3 641796883#4 641796883#5 8085870#0 8085870#1 111673155#1 111998587 622618098 8085654#0 8085654#1 8085654#2 8085654#3 8085654#4 -24245287 8085736 555427591#0 555427591#1 555427591#2 555427591#3 555427591#4 555427591#5 555427591#6 555427593 -111416290"/>
    </vehicle>
    <vehicle id="46" type="car"   depart=" 13.80" departLane="best" departPos="random" departSpeed="max">
        <route edges="-111607112#4 -111607112#3 -111607112#2 -20457647#4 -20457647#3 -20457647#2 -20457647#1 -20457647#0 -20457853#0 -20457929#0 348427015#8 gneE30 gneE20 -gneE14 27541025#2 27541025#3 27541025#4 27541025#5 27541025#7 27541025#8 27541025#10 27541025#11 27541025#12 -543403920 -543403922"/>
    </vehicle>
    <vehicle id="47" type="car"   depart=" 14.10" departLane="best" departPos="random" departSpeed="max">
        <route edges="166682861#15 166682861#16 24706008 gneE27 112001567 gneE8 543531130#0 543531130#1 543531432 gneE52 gneE53 20457331#0 -gneE35 111996091#1 111996091#2 111996091#3 111429733#0 111429733#1 111429733#2 566667744 -29150883#7 -29150883#6 24648426#2 24648426#3 24648426#4 24652454#0 24652454#1 24652454#2 24652913"/>
    </vehicle>
    <vehicle id="48" type="car"   depart=" 14.40" departLane="best" departPos="random" departSpeed="max">
        <route edges="-295972799#2 -295972799#1 -295972799#0 -8085742#1 -8085742#0 -555427591#1 -555427591#0 -8085736 24245287 -8085654#4 -8085654#3 -8085654#2 -8085654#1 -8085654#0 -622618098 -111998587 111671463 gneE62 gneE61 gneE52 gneE2 112001563#1 112001563#2 112001563#3 543589720#0 543589720#1 543589720#2 641796874 111607112#0 111607112#1 -20457647#4 -20457647#3 -20457647#2 -20457647#1"/>
    </vehicle>
    <vehicle id="49" type="car"   depart=" 14.70" departLane="best" departPos="random" departSpeed="max">
        <route edges="661435627#4 -24647829#1 -24647829#0 -24647374#6 -24647827 -gneE32 -24647823#3 -24647823#2 -24647823#1 -24647823#0 -111607112#5 24647803 -20464046#6 24647811 29148381#5 24647813#2 24647813#3 24647813#4 24647813#5 111349534#1 24648386#0 24648386#1 -29150877#0 24648387#2 24648387#3 29150883#0 29150883#1 24652441#0 24652441#1 -24652454#3"/>
    </vehicle>
    <vehicle id="50" type="car"   depart=" 15.00" departLane="best" departPos="random" departSpeed="max">
        <route edges="-473749070#1 473749070#1 473749070#2 gneE6 555437811#2 gneE7 gneE8 543531130#0 543531130#1 543531432 gneE52 gneE53 20457331#0 -641796883#5 -641796883#4 -641796883#3 -641796883#2 -641796883#1 -641796883#0 -111607111 -29148381#10 -29148381#9 -29148381#8 -29148381#7 -29148381#6 -24647813#1 -24647813#0 -20464046#3"/>
    </vehicle>
    <vehicle id="51" type="car"   depart=" 15.30" departLane="best" departPos="random" departSpeed="max">
        <route edges="24647835#0 24647836#0 24647841#2 -24647374#4 516635149 -29185404#1 -gneE32 -24647823#3 -24647823#2 -24647823#1 -24647823#0 -111607112#5 24647803 20464046#7 20464066#0 24647793 24647794#1"/>
    </vehicle>
    <vehicle id="52" type="car"   depart=" 15.60" departLane="best" departPos="random" departSpeed="max">
        <route edges="641796883#5 -gneE35 111996091#1 111996091#2 111996091#3 111429733#0 111429733#1 111429733#2 566667744 566667738#0 566667738#1 566667738#2 24245156#0 -24245156#0"/>
    </vehicle>
    <vehicle id="53" type="car"   depart=" 15.90" departLane="best" departPos="random" departSpeed="max">
        <route edges="24635777#1 gneE13 27541025#2 27541025#3 27541025#4 27541025#5 27541025#7 27541025#8 -543531129 539779507#0 24635853#0 24635853#1 24635853#2 24706084#13"/>
    </vehicle>
    <vehicle id="54" type="car"   depart=" 16.20" departLane="best" departPos="random" departSpeed="max">
        <route edges="-543509999#1 -112457271 29185814 539782497 24706021#2 24706021#3 20677671#2 20677671#3 20677671#4 112457271 543509999#1 543531130#0 543531130#1 543531432 gneE52 gneE53 20457331#0 -641796883#5 -641796883#4 -641796883#3 -641796883#2 -641796883#1 -641796883#0 -111607111 -29148381#10 -29148381#9 -29148381#8 -29148381#7 -29148381#6 24647813#2 24647813#3 24647813#4 24647861#1 24647861#2 24647899#2"/>
    </vehicle>
    <vehicle id="55" type="car"   depart=" 16.50" departLane="best" departPos="random" departSpeed="max">
        <route edges="20464046#4 20464046#5 24647811 29148381#5 29148381#6 29148381#7 29148381#8 29148381#9 29148381#10 111607111 -641796879#2 -641796879#1 -641796879#0"/>
    </vehicle>
    <vehicle id="56" type="car"   depart=" 16.80" departLane="best" departPos="random" departSpeed="max">
        <route edges="111683859#0 111683859#1 555429844 348606772#0 -gneE65 348606771 348606777 543328657 -gneE63 -20457805#4 -20457805#3 -20457805#2 -20457805#1 -20457805#0 -29185405#2 24647374#0 24647374#1 24647374#2 24647374#3 24647374#4 24647374#5 24647374#6 29148375#0 29148375#1 -29148373#2 -29148373#1 24647379#0 24647379#1"/>
    </vehicle>
    <vehicle id="57" type="car"   depart=" 17.10" departLane="best" departPos="random" departSpeed="max">
        <route edges="24706021#0 24706024 24706019#3 24706019#4 -20677663#3 -20677663#2 -20677663#1 -20677663#0 -27541025#5 -27541025#4 -27541025#3 -27541025#2 gneE14 gneE23 -gneE30 -348427015#8 -348427015#7 -348427015#6 -348427015#5 -348427015#4 -348427015#3 -348427015#2 -348427015#1 -348427015#0 -24647829#1 -24647829#0 -24647374#6 -24647827 -gneE32 -24647823#3 24647823#3"/>
    </vehicle>
    <vehicle id="58" type="car"   depart=" 17.40" departLane="best" departPos="random" departSpeed="max">
        <route edges="20457609#2 gneE65 543328655#0 543328655#1 543328651#1 543328651#2 543328651#3 gneE53 gneE54 gneE55 24706186 555437813 gneE6 -20458215#3 -20458215#2 24706180#0 24706180#1"/>
    </vehicle>
    <vehicle id="59" type="car"   depart=" 17.70" departLane="best" departPos="random" departSpeed="max">
        <route edges="348606786#1 -555450161#4 -20457805#2 -20457805#1 -20457805#0 -29185405#2 24647374#0 24647374#1 24647374#2 24647374#3 24647374#4 -24647841#2 -24647836#0 -24647835#0"/>
    </vehicle>
    <vehicle id="60" type="car"   depart=" 18.00" departLane="best" departPos="random" departSpeed="max">
        <route edges="-24635772#1 477085777#0 477085777#1 24635777#1 gneE13 27541025#2 27541025#3 27541025#4 27541025#5 27541025#7 27541025#8 27541025#10 27541025#11 27541025#12 -543403920 -24635787 -24706084#17 29151689 20462786#0 20462786#1 20462786#2 -166682861#3 -166682861#2 -166682861#1 24642841"/>
    </vehicle>
    <vehicle id="62" type="car"   depart=" 18.60" departLane="best" departPos="random" departSpeed="max">
        <route edges="-20457937#2 -24647819 -14526777#0"/>
    </vehicle>
    <vehicle id="63" type="car"   depart=" 18.90" departLane="best" departPos="random" departSpeed="max">
        <route edges="543574676 426568355 426568351 543575220#0 543575220#1 -166682861#3 -166682861#2 426568352 -426568355 348513095 543574677 149039336 149039346 543574674 555452855"/>
    </vehicle>
    <vehicle id="64" type="car"   depart=" 19.20" departLane="best" departPos="random" departSpeed="max">
        <route edges="25768702#1 25768702#2 25768702#3 25768702#4 543592243#3 -25768686 661435627#2 -29148373#4 -29148373#3 -29148373#2 -29148373#1 -29148373#0 111607112#8 20464526 29148381#1 29148381#2 29148381#3 29148381#4 29148381#5 29148381#6 20464209#0 20464209#1 20464209#2 20464209#3 111349534#3 111349534#4 537447926 29149366#0 29149366#1 29149366#2 29149366#3 24648391#0 24648391#1 29150883#4 29150883#5 29150883#6 112208514#2"/>
    </vehicle>
    <vehicle id="65" type="car"   depart=" 19.50" departLane="best" departPos="random" departSpeed="max">
        <route edges="-20464046#0 20457937#1 20457937#2 29148381#9 29148381#10 111607111 641796883#0 641796883#1 641796883#2 641796883#3 641796883#4 641796883#5 8085870#0 8085870#1 111673155#1 111998587 622618098 8085654#0 8085654#1 8085654#2 8085654#3 8085654#4 -24245287 -111429742#1 -111429742#0"/>
    </vehicle>
    <vehicle id="66" type="car"   depart=" 19.80" departLane="best" departPos="random" departSpeed="max">
        <route edges="-20464189#1 -20464133#3 -20464133#2 -20464133#1 -20464133#0 -29148381#9 -29148381#8 -29148381#7 -29148381#6 -29148381#5 -24647811 20464046#6 -24647803 111607112#5 111607112#6 111607112#7 111607112#8"/>
    </vehicle>
    <vehicle id="67" type="car"   depart=" 20.10" departLane="best" departPos="random" departSpeed="max">
        <route edges="348606772#0 -gneE65 348606771 348606777 543328657 -gneE63 -20457805#4 -20457805#3 -20457805#2 -20457805#1 -20457805#0 -29185405#2 24647374#0"/>
    </vehicle>
    <vehicle id="68" type="car"   depart=" 20.40" departLane="best" departPos="random" departSpeed="max">
        <route edges="166682861#16 24706008 gneE27 112001567 gneE8 543531130#0 543531130#1 543531432 gneE52 gneE2 112001563#1 112001563#2 112001563#3 543589720#0 543589720#1 543589720#2 641796874 111607112#0 111607112#1 111607112#2 111607112#3 111607112#4 111607112#5 111607112#6 111607112#7 111607112#8 -20464487#1 24647493 24647379#1"/>
    </vehicle>
    <vehicle id="69" type="car"   depart=" 20.70" departLane="best" departPos="random" departSpeed="max">
        <route edges="-348427015#1 -348427015#0 -661435627#4 661435627#4 348427015#0 348427015#1 348427015#2 348427015#3 348427015#4 348427015#5 348427015#6 348427015#7 348427015#8 gneE30 348606786#1 -555450161#4 -555450161#3 -555450161#2 -555450161#1 -555450161#0 -14526777#2 -14526777#1 -14526777#0 111607111 641796883#0 641796883#1 641796883#2 641796883#3 641796883#4 641796883#5 -gneE35 111996091#1 111996091#2 111996091#3 111429733#0 24648411#0 112208514#0"/>
    </vehicle>
    <vehicle id="70" type="car"   depart=" 21.00" departLane="best" departPos="random" departSpeed="max">
        <route edges="-24245156#0 -566667738#2 -566667738#1 -566667738#0 -566667744 -111429733#2 -111429733#1 -111429733#0 -111996091#3 -111996091#2 -111996091#1 gneE35 111411556#1 gneE55 24706186 555437813 -473749070#2 -473749070#1 -473749070#0 537439082#0 577838576#0 166683994#0 166683994#2"/>
    </vehicle>
    <vehicle id="71" type="car"   depart=" 21.30" departLane="best" departPos="random" departSpeed="max">
        <route edges="543406317 27541025#5 20677663#0 529560216 -24706174#5 -24706174#4 -24706174#3 -24706174#2 -24706174#1 -24706174#0 -20457989 543531130#1 543531432 gneE52 gneE53 gneE54 111673155#0 111673155#1 111998587 622618098 8085654#0 8085654#1 8085654#2 8085654#3 8085654#4 8085654#5 8085654#6 527800661 543576939#0 543576939#1 543576939#2 296415915 24245323#1 8085760#2 -5043292#1 348513090#0 348513090#1 234092076#0 234092076#1"/>
    </vehicle>
    <vehicle id="72" type="car"   depart=" 21.60" departLane="best" departPos="random" departSpeed="max">
        <route edges="-516635151#1 -24647841#0 348427015#1 348427015#2 348427015#3 348427015#4 -25768638#1 -25768638#0 29148365#1 -25768600#1"/>
    </vehicle>
    <vehicle id="73" type="car"   depart=" 21.90" departLane="best" departPos="random" departSpeed="max">
        <route edges="539808719#0 539808719#1 20457528#1 -20457528#1 -539808719#1 -539808719#0 22820466#0"/>
    </vehicle>
    <vehicle id="74" type="car"   depart=" 22.20" departLane="best" departPos="random" departSpeed="max">
        <route edges="-20464133#2 -20464133#1 -20464133#0 -29148381#9 -29148381#8 -29148381#7 -29148381#6 -29148381#5 -24647811 20464046#6 -24647803 111607112#5 111607112#6 105243855 -105243855"/>
    </vehicle>
    <vehicle id="75" type="car"   depart=" 22.50" departLane="best" departPos="random" departSpeed="max">
        <route edges="-24652454#4 -24652454#3 -24652454#2 -24652454#1 -24652454#0 -24648426#4 -24648426#3 -24648426#2 29150883#6 29150883#7 -566667744 24245351 111429742#0 111429742#1 8085736 555427591#0 8085723#0"/>
    </vehicle>
    <vehicle id="76" type="car"   depart=" 22.80" departLane="best" departPos="random" departSpeed="max">
        <route edges="-24647803 -111607112#4 -111607112#3 -111607112#2 -111607112#1 -111607112#0 -641796874 -543589720#2 -543589720#1 -543589720#0 -112001563#3 -112001563#2 -112001563#1"/>
    </vehicle>
    <vehicle id="77" type="car"   depart=" 23.10" departLane="best" departPos="random" departSpeed="max">
        <route edges="24642794#6 539784724 29121886#1 29121886#2 29121886#3 29121886#4 -24706084#9 -24706084#8 -24706084#7 -24706084#6 -24706084#5 -24706084#4 -24706084#3 -24706084#1 gneE27 112001567 gneE8 543531130#0 543531130#1 543531432 gneE52 gneE53 20457331#0 -641796883#5"/>
    </vehicle>
    <vehicle id="78" type="car"   depart=" 23.40" departLane="best" departPos="random" departSpeed="max">
        <route edges="555454216 555453194 20462719 gneE12 20462657#0 20462657#1 7054907#0 7054907#1 7054907#2 7054907#3 166682861#0 166682861#1 166682861#2 166682861#3 166682861#4 166682861#5 166682861#6 166682861#7 166682861#8 29121886#0 29121886#1 29121886#2 29121886#3 29121886#4 -24706084#9 -24706084#8 -24706084#7 -24706084#6 -24706084#5 -24706084#4 -24706084#3 -24706084#1 gneE27 112001567 gneE8 543531130#0 543531130#1 543531432 gneE52 gneE53 20457331#0 -641796883#5 -641796883#4 -641796883#3 -641796883#2 543589718 29185282#0 29185282#1"/>
    </vehicle>