<?xml version="1.0" encoding="UTF-8"?>



<net version="1.1" junctionCornerDetail="5" rectangularLaneCut="true" lefthand="true" limitTurnSpeed="5.50" checkLaneFoesAll="1" xmlns:xsi="http://www.w3.org/2001/XMLSchema-instance" xsi:noNamespaceSchemaLocation="http://sumo.dlr.de/xsd/net_file.xsd">

    <location netOffset="-503696.96,-3836743.80" convBoundary="0.00,0.00,3040.61,2830.99" origBoundary="33.040362,34.672657,33.073559,34.698181" projParameter="+proj=utm +zone=36 +ellps=WGS84 +datum=WGS84 +units=m +no_defs"/>

    <type id="highway.bridleway" priority="1" numLanes="1" speed="2.78" allow="pedestrian" oneway="1" width="2.00"/>
    <type id="highway.bus_guideway" priority="1" numLanes="1" speed="27.78" allow="bus" oneway="1"/>
    <type id="highway.cycleway" priority="1" numLanes="1" speed="8.33" allow="bicycle" oneway="0" width="1.00"/>
    <type id="highway.footway" priority="1" numLanes="1" speed="2.78" allow="pedestrian" oneway="1" width="2.00"/>
    <type id="highway.ford" priority="1" numLanes="1" speed="2.78" allow="army" oneway="0"/>
    <type id="highway.living_street" priority="2" numLanes="1" speed="2.78" disallow="tram rail_urban rail rail_electric ship" oneway="0"/>
    <type id="highway.motorway" priority="14" numLanes="2" speed="39.44" allow="private emergency authority army vip passenger hov taxi bus coach delivery truck trailer motorcycle evehicle custom1 custom2" oneway="1"/>
    <type id="highway.motorway_link" priority="9" numLanes="1" speed="22.22" allow="private emergency authority army vip passenger hov taxi bus coach delivery truck trailer motorcycle evehicle custom1 custom2" oneway="1"/>
    <type id="highway.path" priority="1" numLanes="1" speed="2.78" allow="bicycle pedestrian" oneway="1" width="2.00"/>
    <type id="highway.pedestrian" priority="1" numLanes="1" speed="2.78" allow="pedestrian" oneway="1" width="2.00"/>
    <type id="highway.primary" priority="12" numLanes="2" speed="27.78" disallow="tram rail_urban rail rail_electric ship" oneway="0"/>
    <type id="highway.primary_link" priority="7" numLanes="1" speed="22.22" disallow="tram rail_urban rail rail_electric ship" oneway="0"/>
    <type id="highway.raceway" priority="15" numLanes="2" speed="83.33" allow="vip" oneway="0"/>
    <type id="highway.residential" priority="3" numLanes="1" speed="13.89" disallow="tram rail_urban rail rail_electric ship" oneway="0"/>
    <type id="highway.secondary" priority="11" numLanes="2" speed="27.78" disallow="tram rail_urban rail rail_electric ship" oneway="0"/>
    <type id="highway.secondary_link" priority="6" numLanes="1" speed="22.22" disallow="tram rail_urban rail rail_electric ship" oneway="0"/>
    <type id="highway.service" priority="1" numLanes="1" speed="5.56" allow="delivery bicycle pedestrian" oneway="0"/>
    <type id="highway.stairs" priority="1" numLanes="1" speed="1.39" allow="pedestrian" oneway="1" width="2.00"/>
    <type id="highway.step" priority="1" numLanes="1" speed="1.39" allow="pedestrian" oneway="1" width="2.00"/>
    <type id="highway.steps" priority="1" numLanes="1" speed="1.39" allow="pedestrian" oneway="1" width="2.00"/>
    <type id="highway.tertiary" priority="10" numLanes="1" speed="22.22" disallow="tram rail_urban rail rail_electric ship" oneway="0"/>
    <type id="highway.tertiary_link" priority="5" numLanes="1" speed="22.22" disallow="tram rail_urban rail rail_electric ship" oneway="0"/>
    <type id="highway.track" priority="1" numLanes="1" speed="5.56" disallow="tram rail_urban rail rail_electric ship" oneway="0"/>
    <type id="highway.trunk" priority="13" numLanes="2" speed="27.78" disallow="tram rail_urban rail rail_electric bicycle pedestrian ship" oneway="0"/>
    <type id="highway.trunk_link" priority="8" numLanes="1" speed="22.22" disallow="tram rail_urban rail rail_electric bicycle pedestrian ship" oneway="0"/>
    <type id="highway.unclassified" priority="4" numLanes="1" speed="13.89" disallow="tram rail_urban rail rail_electric ship" oneway="0"/>
    <type id="highway.unsurfaced" priority="1" numLanes="1" speed="8.33" disallow="tram rail_urban rail rail_electric ship" oneway="0"/>
    <type id="railway.light_rail" priority="19" numLanes="1" speed="27.78" allow="rail_urban" oneway="1"/>
    <type id="railway.preserved" priority="16" numLanes="1" speed="27.78" allow="rail" oneway="1"/>
    <type id="railway.rail" priority="20" numLanes="1" speed="83.33" allow="rail rail_electric" oneway="1"/>
    <type id="railway.subway" priority="18" numLanes="1" speed="27.78" allow="rail_urban" oneway="1"/>
    <type id="railway.tram" priority="17" numLanes="1" speed="13.89" allow="tram" oneway="1"/>

    <edge id=":1212820385_0" function="internal">
        <lane id=":1212820385_0_0" index="0" disallow="tram rail_urban rail rail_electric ship" speed="6.90" length="9.73" shape="797.08,2323.38 795.43,2325.21 793.46,2326.08 791.16,2325.99 788.55,2324.95"/>
    </edge>
    <edge id=":1212820385_1" function="internal">
        <lane id=":1212820385_1_0" index="0" disallow="tram rail_urban rail rail_electric ship" speed="13.89" length="14.79" shape="797.08,2323.38 795.03,2326.45 792.94,2329.40 790.77,2332.30 788.49,2335.20">
            <neigh lane=":1212820385_2_0"/>
        </lane>
    </edge>
    <edge id=":1212820385_2" function="internal">
        <lane id=":1212820385_2_0" index="0" disallow="tram rail_urban rail rail_electric ship" speed="13.89" length="14.79" shape="790.98,2337.21 793.29,2334.26 795.53,2331.28 797.69,2328.23 799.77,2325.11">
            <neigh lane=":1212820385_1_0"/>
        </lane>
    </edge>
    <edge id=":1212820385_3" function="internal">
        <lane id=":1212820385_3_0" index="0" disallow="tram rail_urban rail rail_electric ship" speed="7.72" length="6.22" shape="790.98,2337.21 793.12,2333.60 793.31,2331.58"/>
    </edge>
    <edge id=":1212820385_6" function="internal">
        <lane id=":1212820385_6_0" index="0" disallow="tram rail_urban rail rail_electric ship" speed="7.72" length="8.69" shape="793.31,2331.58 793.42,2330.35 791.90,2327.47 788.55,2324.95"/>
    </edge>
    <edge id=":1212820385_4" function="internal">
        <lane id=":1212820385_4_0" index="0" disallow="tram rail_urban rail rail_electric ship" speed="6.16" length="9.05" shape="787.01,2327.75 789.05,2329.29 789.97,2331.04 789.79,2333.01 788.49,2335.20"/>
    </edge>
    <edge id=":1212820385_5" function="internal">
        <lane id=":1212820385_5_0" index="0" disallow="tram rail_urban rail rail_electric ship" speed="8.33" length="14.62" shape="787.01,2327.75 790.87,2329.27 794.28,2329.33 797.25,2327.95 799.77,2325.11"/>
    </edge>
    <edge id=":1212820389_0" function="internal">
        <lane id=":1212820389_0_0" index="0" disallow="tram rail_urban rail rail_electric ship" speed="3.65" length="4.67" shape="724.97,2290.12 723.53,2290.24 722.80,2290.75 722.76,2291.65 723.43,2292.92"/>
    </edge>
    <edge id=":123557253_0" function="internal">
        <lane id=":123557253_0_0" index="0" disallow="tram rail_urban rail rail_electric ship" speed="3.91" length="2.47" shape="409.83,162.99 410.42,163.32 410.77,163.76 410.90,164.31 410.79,164.97"/>
    </edge>
    <edge id=":1262377499_0" function="internal">
        <lane id=":1262377499_0_0" index="0" disallow="tram rail_urban rail rail_electric ship" speed="6.59" length="9.10" shape="1084.91,1621.04 1083.40,1623.01 1081.62,1624.05 1079.55,1624.14 1077.21,1623.30"/>
    </edge>
    <edge id=":1262377499_1" function="internal">
        <lane id=":1262377499_1_0" index="0" disallow="tram rail_urban rail rail_electric ship" speed="13.89" length="11.21" shape="1084.91,1621.04 1079.43,1630.82">
            <neigh lane=":1262377499_5_0"/>
        </lane>
    </edge>
    <edge id=":1262377499_2" function="internal">
        <lane id=":1262377499_2_0" index="0" disallow="tram rail_urban rail rail_electric ship" speed="6.51" length="9.01" shape="1089.84,1630.22 1087.88,1628.71 1086.87,1626.94 1086.81,1624.90 1087.70,1622.61"/>
    </edge>
    <edge id=":1262377499_3" function="internal">
        <lane id=":1262377499_3_0" index="0" disallow="tram rail_urban rail rail_electric ship" speed="13.89" length="14.40" shape="1089.84,1630.22 1077.21,1623.30"/>
    </edge>
    <edge id=":1262377499_4" function="internal">
        <lane id=":1262377499_4_0" index="0" disallow="tram rail_urban rail rail_electric ship" speed="7.32" length="11.74" shape="1089.84,1630.22 1086.32,1628.63 1083.42,1628.20 1081.12,1628.93 1079.43,1630.82"/>
    </edge>
    <edge id=":1262377499_5" function="internal">
        <lane id=":1262377499_5_0" index="0" disallow="tram rail_urban rail rail_electric ship" speed="13.89" length="11.21" shape="1082.22,1632.39 1087.70,1622.61">
            <neigh lane=":1262377499_1_0"/>
        </lane>
    </edge>
    <edge id=":1262377499_6" function="internal">
        <lane id=":1262377499_6_0" index="0" disallow="tram rail_urban rail rail_electric ship" speed="7.26" length="4.06" shape="1082.22,1632.39 1082.95,1629.96 1082.58,1628.48"/>
    </edge>
    <edge id=":1262377499_7" function="internal">
        <lane id=":1262377499_7_0" index="0" disallow="tram rail_urban rail rail_electric ship" speed="7.26" length="7.67" shape="1082.58,1628.48 1082.36,1627.63 1080.44,1625.41 1077.21,1623.30"/>
    </edge>
    <edge id=":1269474364_0" function="internal">
        <lane id=":1269474364_0_0" index="0" disallow="tram rail_urban rail rail_electric ship" speed="13.89" length="14.25" shape="2558.10,1993.74 2550.34,2005.64">
            <neigh lane=":1269474364_5_0"/>
        </lane>
    </edge>
    <edge id=":1269474364_1" function="internal">
        <lane id=":1269474364_1_0" index="0" disallow="tram rail_urban rail rail_electric ship" speed="8.04" length="5.75" shape="2558.10,1993.74 2556.53,1997.25 2556.48,1999.16"/>
    </edge>
    <edge id=":1269474364_6" function="internal">
        <lane id=":1269474364_6_0" index="0" disallow="tram rail_urban rail rail_electric ship" speed="8.04" length="8.35" shape="2556.48,1999.16 2556.45,2000.44 2557.85,2003.32 2560.73,2005.89"/>
    </edge>
    <edge id=":1269474364_2" function="internal">
        <lane id=":1269474364_2_0" index="0" disallow="tram rail_urban rail rail_electric ship" speed="6.55" length="9.02" shape="2562.50,2003.22 2560.65,2001.58 2559.75,1999.73 2559.81,1997.69 2560.81,1995.45"/>
    </edge>
    <edge id=":1269474364_3" function="internal">
        <lane id=":1269474364_3_0" index="0" disallow="tram rail_urban rail rail_electric ship" speed="8.00" length="14.12" shape="2562.50,2003.22 2559.01,2001.56 2555.82,2001.41 2552.93,2002.77 2550.34,2005.64"/>
    </edge>
    <edge id=":1269474364_4" function="internal">
        <lane id=":1269474364_4_0" index="0" disallow="tram rail_urban rail rail_electric ship" speed="6.51" length="8.99" shape="2552.99,2007.42 2554.64,2005.60 2556.48,2004.73 2558.51,2004.83 2560.73,2005.89"/>
    </edge>
    <edge id=":1269474364_5" function="internal">
        <lane id=":1269474364_5_0" index="0" disallow="tram rail_urban rail rail_electric ship" speed="13.89" length="14.25" shape="2552.99,2007.42 2560.81,1995.45">
            <neigh lane=":1269474364_0_0"/>
        </lane>
    </edge>
    <edge id=":1269566933_0" function="internal">
        <lane id=":1269566933_0_0" index="0" disallow="tram rail_urban rail rail_electric ship" speed="6.49" length="9.03" shape="2609.85,2027.87 2608.21,2029.74 2606.38,2030.63 2604.35,2030.55 2602.11,2029.49"/>
    </edge>
    <edge id=":1269566933_1" function="internal">
        <lane id=":1269566933_1_0" index="0" disallow="tram rail_urban rail rail_electric ship" speed="13.89" length="14.38" shape="2609.85,2027.87 2602.03,2039.96">
            <neigh lane=":1269566933_2_0"/>
        </lane>
    </edge>
    <edge id=":1269566933_2" function="internal">
        <lane id=":1269566933_2_0" index="0" disallow="tram rail_urban rail rail_electric ship" speed="13.89" length="14.38" shape="2604.72,2041.69 2612.53,2029.62">
            <neigh lane=":1269566933_1_0"/>
        </lane>
    </edge>
    <edge id=":1269566933_3" function="internal">
        <lane id=":1269566933_3_0" index="0" disallow="tram rail_urban rail rail_electric ship" speed="8.04" length="5.88" shape="2604.72,2041.69 2606.33,2038.17 2606.39,2036.16"/>
    </edge>
    <edge id=":1269566933_6" function="internal">
        <lane id=":1269566933_6_0" index="0" disallow="tram rail_urban rail rail_electric ship" speed="8.04" length="8.31" shape="2606.39,2036.16 2606.43,2034.97 2605.02,2032.07 2602.11,2029.49"/>
    </edge>
    <edge id=":1269566933_4" function="internal">
        <lane id=":1269566933_4_0" index="0" disallow="tram rail_urban rail rail_electric ship" speed="6.55" length="9.08" shape="2600.34,2032.15 2602.21,2033.81 2603.12,2035.66 2603.06,2037.71 2602.03,2039.96"/>
    </edge>
    <edge id=":1269566933_5" function="internal">
        <lane id=":1269566933_5_0" index="0" disallow="tram rail_urban rail rail_electric ship" speed="7.98" length="14.22" shape="2600.34,2032.15 2603.87,2033.83 2607.07,2033.96 2609.96,2032.56 2612.53,2029.62"/>
    </edge>
    <edge id=":1271113668_0" function="internal">
        <lane id=":1271113668_0_0" index="0" speed="8.98" length="13.06" shape="1109.05,1313.48 1106.43,1317.41 1104.86,1320.69 1104.33,1323.31 1104.85,1325.26"/>
    </edge>
    <edge id=":1271113668_1" function="internal">
        <lane id=":1271113668_1_0" index="0" speed="8.23" length="10.85" shape="1109.05,1313.48 1107.36,1316.27 1106.55,1318.88 1106.61,1321.30 1107.54,1323.54"/>
    </edge>
    <edge id=":1271113668_2" function="internal">
        <lane id=":1271113668_2_0" index="0" speed="20.84" length="12.86" shape="1100.95,1314.01 1102.26,1316.63 1101.67,1319.65 1101.02,1323.10 1102.15,1326.99"/>
        <lane id=":1271113668_2_1" index="1" speed="20.84" length="12.86" shape="1100.95,1314.01 1102.72,1316.43 1103.13,1318.97 1103.42,1321.84 1104.85,1325.26"/>
    </edge>
    <edge id=":1271267330_0" function="internal">
        <lane id=":1271267330_0_0" index="0" disallow="tram rail_urban rail rail_electric ship" speed="13.89" length="0.10" shape="1093.32,1569.58 1093.32,1569.58"/>
    </edge>
    <edge id=":1274066737_0" function="internal">
        <lane id=":1274066737_0_0" index="0" disallow="tram rail_urban rail rail_electric ship" speed="13.89" length="14.45" shape="942.55,1279.32 936.53,1292.45">
            <neigh lane=":1274066737_5_0"/>
        </lane>
    </edge>
    <edge id=":1274066737_1" function="internal">
        <lane id=":1274066737_1_0" index="0" disallow="tram rail_urban rail rail_electric ship" speed="8.44" length="5.72" shape="942.55,1279.32 941.53,1282.89 941.75,1284.89"/>
    </edge>
    <edge id=":1274066737_7" function="internal">
        <lane id=":1274066737_7_0" index="0" disallow="tram rail_urban rail rail_electric ship" speed="8.44" length="8.68" shape="941.75,1284.89 941.90,1286.12 943.65,1289.01 946.80,1291.56"/>
    </edge>
    <edge id=":1274066737_2" function="internal">
        <lane id=":1274066737_2_0" index="0" disallow="tram rail_urban rail rail_electric ship" speed="7.03" length="9.69" shape="948.48,1288.84 946.31,1287.10 945.09,1285.16 944.80,1283.01 945.46,1280.65"/>
    </edge>
    <edge id=":1274066737_3" function="internal">
        <lane id=":1274066737_3_0" index="0" disallow="tram rail_urban rail rail_electric ship" speed="7.80" length="14.68" shape="948.48,1288.84 944.73,1287.20 941.48,1287.26 938.75,1289.01 936.53,1292.45"/>
    </edge>
    <edge id=":1274066737_4" function="internal">
        <lane id=":1274066737_4_0" index="0" disallow="tram rail_urban rail rail_electric ship" speed="6.26" length="9.05" shape="939.43,1293.78 940.80,1291.66 942.49,1290.59 944.49,1290.55 946.80,1291.56"/>
    </edge>
    <edge id=":1274066737_5" function="internal">
        <lane id=":1274066737_5_0" index="0" disallow="tram rail_urban rail rail_electric ship" speed="13.89" length="14.45" shape="939.43,1293.78 945.46,1280.65">
            <neigh lane=":1274066737_0_0"/>
        </lane>
    </edge>
    <edge id=":1274066737_6" function="internal">
        <lane id=":1274066737_6_0" index="0" disallow="tram rail_urban rail rail_electric ship" speed="3.65" length="2.34" shape="939.43,1293.78 939.21,1292.36 938.65,1291.66"/>
    </edge>
    <edge id=":1274066737_8" function="internal">
        <lane id=":1274066737_8_0" index="0" disallow="tram rail_urban rail rail_electric ship" speed="3.65" length="2.34" shape="938.65,1291.66 937.75,1291.69 936.53,1292.45"/>
    </edge>
    <edge id=":1274099284_0" function="internal">
        <lane id=":1274099284_0_0" index="0" disallow="tram rail_urban rail rail_electric ship" speed="7.15" length="11.78" shape="1201.25,867.01 1203.79,863.99 1206.23,862.35 1208.58,862.09 1210.84,863.22"/>
    </edge>
    <edge id=":1274099284_1" function="internal">
        <lane id=":1274099284_1_0" index="0" disallow="tram rail_urban rail rail_electric ship" speed="7.13" length="11.92" shape="1198.39,854.86 1200.42,856.61 1201.13,858.91 1200.53,861.77 1198.62,865.19"/>
    </edge>
    <edge id=":1274099284_2" function="internal">
        <lane id=":1274099284_2_0" index="0" disallow="tram rail_urban rail rail_electric ship" speed="13.89" length="15.78" shape="1198.39,854.86 1202.69,856.67 1205.93,857.35 1209.02,858.26 1212.87,860.74"/>
    </edge>
    <edge id=":1274249810_0" function="internal">
        <lane id=":1274249810_0_0" index="0" disallow="tram rail_urban rail rail_electric ship" speed="13.89" length="0.29" shape="1439.96,1045.65 1440.21,1045.84"/>
        <lane id=":1274249810_0_1" index="1" disallow="tram rail_urban rail rail_electric ship" speed="13.89" length="0.29" shape="1441.89,1043.10 1442.10,1043.26"/>
    </edge>
    <edge id=":1274300139_0" function="internal">
        <lane id=":1274300139_0_0" index="0" disallow="tram rail_urban rail rail_electric ship" speed="13.89" length="14.16" shape="1357.07,1411.46 1346.02,1402.75">
            <neigh lane=":1274300139_5_0"/>
        </lane>
    </edge>
    <edge id=":1274300139_1" function="internal">
        <lane id=":1274300139_1_0" index="0" disallow="tram rail_urban rail rail_electric ship" speed="8.00" length="5.60" shape="1357.07,1411.46 1353.66,1409.62 1351.94,1409.45"/>
    </edge>
    <edge id=":1274300139_6" function="internal">
        <lane id=":1274300139_6_0" index="0" disallow="tram rail_urban rail rail_electric ship" speed="8.00" length="8.55" shape="1351.94,1409.45 1350.47,1409.31 1347.51,1410.52 1344.78,1413.27"/>
    </edge>
    <edge id=":1274300139_2" function="internal">
        <lane id=":1274300139_2_0" index="0" disallow="tram rail_urban rail rail_electric ship" speed="6.51" length="9.00" shape="1347.35,1415.19 1349.09,1413.44 1350.97,1412.66 1353.00,1412.86 1355.17,1414.03"/>
    </edge>
    <edge id=":1274300139_3" function="internal">
        <lane id=":1274300139_3_0" index="0" disallow="tram rail_urban rail rail_electric ship" speed="8.15" length="14.08" shape="1347.35,1415.19 1349.21,1411.80 1349.61,1408.60 1348.55,1405.58 1346.02,1402.75"/>
    </edge>
    <edge id=":1274300139_4" function="internal">
        <lane id=":1274300139_4_0" index="0" disallow="tram rail_urban rail rail_electric ship" speed="6.68" length="9.14" shape="1343.96,1405.20 1345.59,1407.03 1346.27,1408.98 1346.00,1411.07 1344.78,1413.27"/>
    </edge>
    <edge id=":1274300139_5" function="internal">
        <lane id=":1274300139_5_0" index="0" disallow="tram rail_urban rail rail_electric ship" speed="13.89" length="14.16" shape="1343.96,1405.20 1355.17,1414.03">
            <neigh lane=":1274300139_0_0"/>
        </lane>
    </edge>
    <edge id=":1274339596_0" function="internal">
        <lane id=":1274339596_0_0" index="0" disallow="tram rail_urban rail rail_electric ship" speed="9.21" length="12.71" shape="1695.44,1439.10 1693.30,1440.36 1690.57,1440.77 1687.25,1440.33 1683.35,1439.03"/>
    </edge>
    <edge id=":1274339596_1" function="internal">
        <lane id=":1274339596_1_0" index="0" disallow="tram rail_urban rail rail_electric ship" speed="13.89" length="16.10" shape="1695.44,1439.10 1691.93,1442.21 1689.39,1444.19 1686.70,1445.97 1682.74,1448.52"/>
        <lane id=":1274339596_1_1" index="1" disallow="tram rail_urban rail rail_electric ship" speed="13.89" length="16.10" shape="1697.60,1441.46 1693.97,1444.68 1691.35,1446.72 1688.58,1448.57 1684.49,1451.20"/>
    </edge>
    <edge id=":1274339596_3" function="internal">
        <lane id=":1274339596_3_0" index="0" disallow="tram rail_urban rail rail_electric ship" speed="6.56" length="13.42" shape="1682.13,1441.99 1686.07,1444.13 1687.78,1446.37 1687.25,1448.73 1684.49,1451.20"/>
    </edge>
    <edge id=":1274339598_0" function="internal">
        <lane id=":1274339598_0_0" index="0" disallow="tram rail_urban rail rail_electric ship" speed="13.89" length="1.70" shape="1779.57,1324.15 1776.75,1322.61"/>
        <lane id=":1274339598_0_1" index="1" disallow="tram rail_urban rail rail_electric ship" speed="13.89" length="1.70" shape="1779.57,1324.15 1779.46,1324.32"/>
    </edge>
    <edge id=":1274339599_0" function="internal">
        <lane id=":1274339599_0_0" index="0" disallow="tram rail_urban rail rail_electric ship" speed="13.89" length="0.30" shape="1772.57,1281.91 1772.82,1282.08"/>
        <lane id=":1274339599_0_1" index="1" disallow="tram rail_urban rail rail_electric ship" speed="13.89" length="0.30" shape="1774.36,1279.26 1774.61,1279.43"/>
    </edge>
    <edge id=":1274339632_0" function="internal">
        <lane id=":1274339632_0_0" index="0" disallow="tram rail_urban rail rail_electric ship" speed="13.89" length="0.29" shape="1511.49,1496.98 1511.21,1497.03"/>
    </edge>
    <edge id=":1274339632_1" function="internal">
        <lane id=":1274339632_1_0" index="0" disallow="tram rail_urban rail rail_electric ship" speed="13.89" length="0.31" shape="1511.76,1500.18 1512.07,1500.13"/>
    </edge>
    <edge id=":1274339632_2" function="internal">
        <lane id=":1274339632_2_0" index="0" disallow="tram rail_urban rail rail_electric ship" speed="3.65" length="2.34" shape="1511.76,1500.18 1512.81,1499.19 1513.06,1498.33"/>
    </edge>
    <edge id=":1274339632_3" function="internal">
        <lane id=":1274339632_3_0" index="0" disallow="tram rail_urban rail rail_electric ship" speed="3.65" length="2.34" shape="1513.06,1498.33 1512.53,1497.61 1511.21,1497.03"/>
    </edge>
    <edge id=":1274339636_0" function="internal">
        <lane id=":1274339636_0_0" index="0" disallow="tram rail_urban rail rail_electric ship" speed="13.89" length="0.58" shape="1667.39,1458.52 1667.32,1458.57 1667.27,1458.60 1667.21,1458.62 1667.13,1458.66"/>
        <lane id=":1274339636_0_1" index="1" disallow="tram rail_urban rail rail_electric ship" speed="13.89" length="0.58" shape="1669.14,1461.20 1668.92,1461.34 1668.77,1461.43 1668.61,1461.51 1668.37,1461.61"/>
    </edge>
    <edge id=":1275639198_0" function="internal">
        <lane id=":1275639198_0_0" index="0" disallow="tram rail_urban rail rail_electric ship" speed="13.89" length="11.27" shape="1181.20,1227.51 1175.35,1237.10">
            <neigh lane=":1275639198_1_0"/>
        </lane>
    </edge>
    <edge id=":1275639198_1" function="internal">
        <lane id=":1275639198_1_0" index="0" disallow="tram rail_urban rail rail_electric ship" speed="13.89" length="11.27" shape="1178.06,1238.79 1183.95,1229.14">
            <neigh lane=":1275639198_0_0"/>
        </lane>
    </edge>
    <edge id=":1275639198_2" function="internal">
        <lane id=":1275639198_2_0" index="0" disallow="tram rail_urban rail rail_electric ship" speed="6.51" length="9.05" shape="1173.54,1229.38 1175.44,1230.97 1176.38,1232.79 1176.35,1234.83 1175.35,1237.10"/>
    </edge>
    <edge id=":1275639198_3" function="internal">
        <lane id=":1275639198_3_0" index="0" disallow="tram rail_urban rail rail_electric ship" speed="7.29" length="11.76" shape="1173.54,1229.38 1177.00,1231.11 1179.89,1231.65 1182.21,1230.99 1183.95,1229.14"/>
    </edge>
    <edge id=":1276218684_0" function="internal">
        <lane id=":1276218684_0_0" index="0" disallow="tram rail_urban rail rail_electric ship" speed="6.45" length="9.03" shape="1955.97,2261.00 1954.68,2263.12 1953.02,2264.30 1951.00,2264.53 1948.62,2263.83"/>
    </edge>
    <edge id=":1276218684_1" function="internal">
        <lane id=":1276218684_1_0" index="0" disallow="tram rail_urban rail rail_electric ship" speed="13.89" length="14.36" shape="1955.97,2261.00 1950.39,2274.25">
            <neigh lane=":1276218684_2_0"/>
        </lane>
    </edge>
    <edge id=":1276218684_2" function="internal">
        <lane id=":1276218684_2_0" index="0" disallow="tram rail_urban rail rail_electric ship" speed="13.89" length="14.36" shape="1953.35,2275.47 1958.91,2262.26">
            <neigh lane=":1276218684_1_0"/>
        </lane>
    </edge>
    <edge id=":1276218684_3" function="internal">
        <lane id=":1276218684_3_0" index="0" disallow="tram rail_urban rail rail_electric ship" speed="8.12" length="5.80" shape="1953.35,2275.47 1954.29,2271.76 1954.00,2269.81"/>
    </edge>
    <edge id=":1276218684_6" function="internal">
        <lane id=":1276218684_6_0" index="0" disallow="tram rail_urban rail rail_electric ship" speed="8.12" length="8.41" shape="1954.00,2269.81 1953.81,2268.58 1951.92,2265.94 1948.62,2263.83"/>
    </edge>
    <edge id=":1276218684_4" function="internal">
        <lane id=":1276218684_4_0" index="0" disallow="tram rail_urban rail rail_electric ship" speed="6.65" length="9.20" shape="1947.28,2266.74 1949.44,2268.10 1950.67,2269.81 1950.99,2271.86 1950.39,2274.25"/>
    </edge>
    <edge id=":1276218684_5" function="internal">
        <lane id=":1276218684_5_0" index="0" disallow="tram rail_urban rail rail_electric ship" speed="7.96" length="14.29" shape="1947.28,2266.74 1951.05,2267.85 1954.25,2267.48 1956.86,2265.61 1958.91,2262.26"/>
    </edge>
    <edge id=":1276218688_0" function="internal">
        <lane id=":1276218688_0_0" index="0" disallow="tram rail_urban rail rail_electric ship" speed="13.89" length="14.40" shape="1906.76,2238.59 1901.09,2251.83">
            <neigh lane=":1276218688_5_0"/>
        </lane>
    </edge>
    <edge id=":1276218688_1" function="internal">
        <lane id=":1276218688_1_0" index="0" disallow="tram rail_urban rail rail_electric ship" speed="8.09" length="5.88" shape="1906.76,2238.59 1905.77,2242.31 1906.05,2244.32"/>
    </edge>
    <edge id=":1276218688_6" function="internal">
        <lane id=":1276218688_6_0" index="0" disallow="tram rail_urban rail rail_electric ship" speed="8.09" length="8.35" shape="1906.05,2244.32 1906.21,2245.49 1908.08,2248.14 1911.38,2250.25"/>
    </edge>
    <edge id=":1276218688_2" function="internal">
        <lane id=":1276218688_2_0" index="0" disallow="tram rail_urban rail rail_electric ship" speed="6.61" length="9.16" shape="1912.72,2247.35 1910.58,2245.98 1909.36,2244.28 1909.07,2242.23 1909.70,2239.85"/>
    </edge>
    <edge id=":1276218688_3" function="internal">
        <lane id=":1276218688_3_0" index="0" disallow="tram rail_urban rail rail_electric ship" speed="7.95" length="14.29" shape="1912.72,2247.35 1908.95,2246.23 1905.76,2246.60 1903.14,2248.47 1901.09,2251.83"/>
    </edge>
    <edge id=":1276218688_4" function="internal">
        <lane id=":1276218688_4_0" index="0" disallow="tram rail_urban rail rail_electric ship" speed="6.45" length="9.03" shape="1904.04,2253.09 1905.33,2250.96 1906.98,2249.78 1909.00,2249.55 1911.38,2250.25"/>
    </edge>
    <edge id=":1276218688_5" function="internal">
        <lane id=":1276218688_5_0" index="0" disallow="tram rail_urban rail rail_electric ship" speed="13.89" length="14.40" shape="1904.04,2253.09 1909.70,2239.85">
            <neigh lane=":1276218688_0_0"/>
        </lane>
    </edge>
    <edge id=":1276266756_0" function="internal">
        <lane id=":1276266756_0_0" index="0" speed="6.55" length="9.11" shape="1335.32,1383.10 1333.89,1385.11 1332.15,1386.19 1330.08,1386.32 1327.70,1385.52"/>
    </edge>
    <edge id=":1276266756_1" function="internal">
        <lane id=":1276266756_1_0" index="0" speed="7.36" length="11.78" shape="1335.32,1383.10 1333.26,1386.36 1331.06,1388.33 1328.73,1389.00 1326.26,1388.38"/>
    </edge>
    <edge id=":1276266756_2" function="internal">
        <lane id=":1276266756_2_0" index="0" disallow="tram rail_urban rail rail_electric ship" speed="9.64" length="7.93" shape="1335.32,1383.10 1333.42,1387.98 1333.16,1390.65"/>
    </edge>
    <edge id=":1276266756_8" function="internal">
        <lane id=":1276266756_8_0" index="0" disallow="tram rail_urban rail rail_electric ship" speed="9.64" length="9.51" shape="1333.16,1390.65 1333.01,1392.27 1334.09,1395.97 1336.67,1399.06"/>
    </edge>
    <edge id=":1276266756_3" function="internal">
        <lane id=":1276266756_3_0" index="0" disallow="tram rail_urban rail rail_electric ship" speed="8.42" length="13.10" shape="1338.73,1396.61 1336.93,1394.38 1336.24,1391.62 1336.65,1388.35 1338.17,1384.55"/>
    </edge>
    <edge id=":1276266756_4" function="internal">
        <lane id=":1276266756_4_0" index="0" speed="13.89" length="14.99" shape="1338.73,1396.61 1336.11,1394.44 1333.57,1392.55 1330.49,1390.63 1326.26,1388.38"/>
    </edge>
    <edge id=":1276266756_5" function="internal">
        <lane id=":1276266756_5_0" index="0" disallow="tram rail_urban rail rail_electric ship" speed="6.36" length="9.04" shape="1328.93,1400.00 1330.68,1398.21 1332.55,1397.46 1334.55,1397.74 1336.67,1399.06"/>
    </edge>
    <edge id=":1276266756_6" function="internal">
        <lane id=":1276266756_6_0" index="0" disallow="tram rail_urban rail rail_electric ship" speed="13.89" length="18.03" shape="1328.93,1400.00 1332.29,1395.15 1334.69,1391.22 1336.51,1387.82 1338.17,1384.55"/>
    </edge>
    <edge id=":1276266756_7" function="internal">