<?xml version="1.0" encoding="UTF-8"?>

<!-- generated on 2021-10-25 11:41:01 by Eclipse SUMO sumo Version 1.10.0
<configuration xmlns:xsi="http://www.w3.org/2001/XMLSchema-instance" xsi:noNamespaceSchemaLocation="http://sumo.dlr.de/xsd/sumoConfiguration.xsd">

    <input>
        <net-file value="limassol/limup.net.xml"/>
        <route-files value="limassol/lim.rou.xml"/>
    </input>

    <output>
        <link-output value="limassol/linkOutput.txt"/>
        <lanechange-output value="limassol/lanechangeOutput.txt"/>
        <stop-output value="limassol/stopOutput.txt"/>
    </output>

    <time>
        <begin value="0"/>
        <end value="100"/>
        <step-length value="0.1"/>
    </time>

    <processing>
        <collision.action value="teleport"/>
        <time-to-teleport value="15"/>
    </processing>

    <traci_server>
        <remote-port value="50431"/>
    </traci_server>

    <gui_only>
        <tracker-interval value="0.1"/>
    </gui_only>

</configuration>
-->

<lanechanges>
</lanechanges>
