<?xml version="1.0" encoding="UTF-8"?>

<!-- generated on 2021-10-25 11:41:01 by Eclipse SUMO sumo Version 1.10.0
<configuration xmlns:xsi="http://www.w3.org/2001/XMLSchema-instance" xsi:noNamespaceSchemaLocation="http://sumo.dlr.de/xsd/sumoConfiguration.xsd">

    <input>
        <net-file value="limassol/limup.net.xml"/>
        <route-files value="limassol/lim.rou.xml"/>
    </input>

    <output>
        <link-output value="limassol/linkOutput.txt"/>
        <lanechange-output value="limassol/lanechangeOutput.txt"/>
        <stop-output value="limassol/stopOutput.txt"/>
    </output>

    <time>
        <begin value="0"/>
        <end value="100"/>
        <step-length value="0.1"/>
    </time>

    <processing>
        <collision.action value="teleport"/>
        <time-to-teleport value="15"/>
    </processing>

    <traci_server>
        <remote-port value="50431"/>
    </traci_server>

    <gui_only>
        <tracker-interval value="0.1"/>
    </gui_only>

</configuration>
-->

<link-output>
    <timestep id="0.00"/>
    <timestep id="0.10">
        <link from=":218723588_2_0" via="" to="111349534#3_0">
            <approaching id="1000000000" impatience="0.00" arrivalTime="4.86" arrivalTimeBraking="34.86" leaveTime="5.20" arrivalSpeed="15.00" arrivalSpeedBraking="0.00" leaveSpeed="15.00" willPass="1"/>
        </link>
        <link from=":267919673_2_0" via="" to="111349534#1_0">
            <approaching id="1000000000" impatience="0.00" arrivalTime="1.09" arrivalTimeBraking="1.19" leaveTime="1.42" arrivalSpeed="15.00" arrivalSpeedBraking="15.00" leaveSpeed="15.00" willPass="1"/>
        </link>
        <link from=":267923750_5_0" via="" to="111349534#2_0">
            <approaching id="1000000000" impatience="0.00" arrivalTime="3.05" arrivalTimeBraking="4.94" leaveTime="3.39" arrivalSpeed="15.00" arrivalSpeedBraking="3.92" leaveSpeed="15.00" willPass="1"/>
        </link>
        <link from="111349534#0_0" via=":267919673_2_0" to="111349534#1_0">
            <approaching id="1000000000" impatience="0.00" arrivalTime="0.17" arrivalTimeBraking="0.27" leaveTime="1.42" arrivalSpeed="15.00" arrivalSpeedBraking="15.00" leaveSpeed="15.00" willPass="1"/>
        </link>
        <link from="111349534#1_0" via=":267923750_5_0" to="111349534#2_0">
            <approaching id="1000000000" impatience="0.00" arrivalTime="2.12" arrivalTimeBraking="2.47" leaveTime="3.39" arrivalSpeed="15.00" arrivalSpeedBraking="11.86" leaveSpeed="15.00" willPass="1"/>
        </link>
        <link from="111349534#2_0" via=":218723588_2_0" to="111349534#3_0">
            <approaching id="1000000000" impatience="0.00" arrivalTime="3.91" arrivalTimeBraking="33.91" leaveTime="5.20" arrivalSpeed="15.00" arrivalSpeedBraking="0.00" leaveSpeed="15.00" willPass="1"/>
        </link>
        <link from="111349534#3_0" via=":5043114589_5_0" to="111349534#4_0">
            <approaching id="1000000000" impatience="0.00" arrivalTime="7.58" arrivalTimeBraking="37.58" leaveTime="8.87" arrivalSpeed="15.00" arrivalSpeedBraking="0.00" leaveSpeed="15.00" willPass="1"/>
        </link>
    </timestep>
    <timestep id="0.20">
        <link from=":218723588_2_0" via="" to="111349534#3_0">
            <approaching id="1000000000" impatience="0.00" arrivalTime="4.86" arrivalTimeBraking="34.86" leaveTime="5.20" arrivalSpeed="15.00" arrivalSpeedBraking="0.00" leaveSpeed="15.00" willPass="1"/>
        </link>
        <link from=":267919673_2_0" via="" to="111349534#1_0">
            <approaching id="1000000000" impatience="0.00" arrivalTime="1.09" arrivalTimeBraking="1.19" leaveTime="1.42" arrivalSpeed="15.00" arrivalSpeedBraking="15.00" leaveSpeed="15.00" willPass="1"/>
        </link>
        <link from=":267923750_5_0" via="" to="111349534#2_0">
            <approaching id="1000000000" impatience="0.00" arrivalTime="3.05" arrivalTimeBraking="4.55" leaveTime="3.39" arrivalSpeed="15.00" arrivalSpeedBraking="5.37" leaveSpeed="15.00" willPass="1"/>
        </link>
        <link from="111349534#0_0" via=":267919673_2_0" to="111349534#1_0">
            <approaching id="1000000000" impatience="0.00" arrivalTime="0.17" arrivalTimeBraking="0.27" leaveTime="1.42" arrivalSpeed="15.00" arrivalSpeedBraking="15.00" leaveSpeed="15.00" willPass="1"/>
        </link>
        <link from="111349534#1_0" via=":267923750_5_0" to="111349534#2_0">
            <approaching id="1000000000" impatience="0.00" arrivalTime="2.12" arrivalTimeBraking="2.42" leaveTime="3.39" arrivalSpeed="15.00" arrivalSpeedBraking="12.42" leaveSpeed="15.00" willPass="1"/>
        </link>
        <link from="111349534#2_0" via=":218723588_2_0" to="111349534#3_0">
            <approaching id="1000000000" impatience="0.00" arrivalTime="3.91" arrivalTimeBraking="33.91" leaveTime="5.20" arrivalSpeed="15.00" arrivalSpeedBraking="0.00" leaveSpeed="15.00" willPass="1"/>
        </link>
        <link from="111349534#3_0" via=":5043114589_5_0" to="111349534#4_0">
            <approaching id="1000000000" impatience="0.00" arrivalTime="7.58" arrivalTimeBraking="37.58" leaveTime="8.87" arrivalSpeed="15.00" arrivalSpeedBraking="0.00" leaveSpeed="15.00" willPass="1"/>
        </link>
    </timestep>
    <timestep id="0.30">
        <link from=":218723588_2_0" via="" to="111349534#3_0">
            <approaching id="1000000000" impatience="0.00" arrivalTime="4.86" arrivalTimeBraking="34.86" leaveTime="5.20" arrivalSpeed="15.00" arrivalSpeedBraking="0.00" leaveSpeed="15.00" willPass="1"/>
        </link>
        <link from=":267919673_2_0" via="" to="111349534#1_0">
            <approaching id="1000000000" impatience="0.00" arrivalTime="1.09" arrivalTimeBraking="1.19" leaveTime="1.42" arrivalSpeed="15.00" arrivalSpeedBraking="15.00" leaveSpeed="15.00" willPass="1"/>
        </link>
        <link from=":267923750_5_0" via="" to="111349534#2_0">
            <approaching id="1000000000" impatience="0.00" arrivalTime="3.05" arrivalTimeBraking="4.28" leaveTime="3.39" arrivalSpeed="15.00" arrivalSpeedBraking="6.51" leaveSpeed="15.00" willPass="1"/>
        </link>
        <link from="111349534#1_0" via=":267923750_5_0" to="111349534#2_0">
            <approaching id="1000000000" impatience="0.00" arrivalTime="2.12" arrivalTimeBraking="2.37" leaveTime="3.39" arrivalSpeed="15.00" arrivalSpeedBraking="12.95" leaveSpeed="15.00" willPass="1"/>
        </link>
        <link from="111349534#2_0" via=":218723588_2_0" to="111349534#3_0">
            <approaching id="1000000000" impatience="0.00" arrivalTime="3.91" arrivalTimeBraking="33.91" leaveTime="5.20" arrivalSpeed="15.00" arrivalSpeedBraking="0.00" leaveSpeed="15.00" willPass="1"/>
        </link>
        <link from="111349534#3_0" via=":5043114589_5_0" to="111349534#4_0">
            <approaching id="1000000000" impatience="0.00" arrivalTime="7.58" arrivalTimeBraking="37.58" leaveTime="8.87" arrivalSpeed="15.00" arrivalSpeedBraking="0.00" leaveSpeed="15.00" willPass="1"/>
        </link>
    </timestep>
    <timestep id="0.40">
        <link from=":218723588_2_0" via="" to="111349534#3_0">
            <approaching id="1000000000" impatience="0.00" arrivalTime="4.86" arrivalTimeBraking="34.86" leaveTime="5.20" arrivalSpeed="15.00" arrivalSpeedBraking="0.00" leaveSpeed="15.00" willPass="1"/>
        </link>
        <link from=":262504973_2_0" via="" to="111429737#3_0">
            <approaching id="1000000001" impatience="0.00" arrivalTime="5.98" arrivalTimeBraking="35.98" leaveTime="6.34" arrivalSpeed="13.89" arrivalSpeedBraking="0.00" leaveSpeed="13.89" willPass="1"/>
        </link>
        <link from=":267919673_2_0" via="" to="111349534#1_0">
            <approaching id="1000000000" impatience="0.00" arrivalTime="1.09" arrivalTimeBraking="1.19" leaveTime="1.42" arrivalSpeed="15.00" arrivalSpeedBraking="15.00" leaveSpeed="15.00" willPass="1"/>
        </link>
        <link from=":267923750_5_0" via="" to="111349534#2_0">
            <approaching id="1000000000" impatience="0.00" arrivalTime="3.05" arrivalTimeBraking="4.08" leaveTime="3.39" arrivalSpeed="15.00" arrivalSpeedBraking="7.47" leaveSpeed="15.00" willPass="1"/>
        </link>
        <link from=":60581450_5_0" via="" to="111429737#2_0">
            <approaching id="1000000001" impatience="0.00" arrivalTime="4.37" arrivalTimeBraking="34.37" leaveTime="4.73" arrivalSpeed="13.89" arrivalSpeedBraking="0.00" leaveSpeed="13.89" willPass="1"/>
        </link>
        <link from="111349534#1_0" via=":267923750_5_0" to="111349534#2_0">
            <approaching id="1000000000" impatience="0.00" arrivalTime="2.12" arrivalTimeBraking="2.32" leaveTime="3.39" arrivalSpeed="15.00" arrivalSpeedBraking="13.46" leaveSpeed="15.00" willPass="1"/>
        </link>
        <link from="111349534#2_0" via=":218723588_2_0" to="111349534#3_0">
            <approaching id="1000000000" impatience="0.00" arrivalTime="3.91" arrivalTimeBraking="33.91" leaveTime="5.20" arrivalSpeed="15.00" arrivalSpeedBraking="0.00" leaveSpeed="15.00" willPass="1"/>
        </link>
        <link from="111349534#3_0" via=":5043114589_5_0" to="111349534#4_0">
            <approaching id="1000000000" impatience="0.00" arrivalTime="7.58" arrivalTimeBraking="37.58" leaveTime="8.87" arrivalSpeed="15.00" arrivalSpeedBraking="0.00" leaveSpeed="15.00" willPass="1"/>
        </link>
        <link from="111429737#1_0" via=":60581450_5_0" to="111429737#2_0">
            <approaching id="1000000001" impatience="0.00" arrivalTime="3.36" arrivalTimeBraking="33.36" leaveTime="4.72" arrivalSpeed="13.89" arrivalSpeedBraking="0.00" leaveSpeed="13.89" willPass="1"/>
        </link>
        <link from="111429737#2_0" via=":262504973_2_0" to="111429737#3_0">
            <approaching id="1000000001" impatience="0.00" arrivalTime="4.95" arrivalTimeBraking="34.95" leaveTime="6.34" arrivalSpeed="13.89" arrivalSpeedBraking="0.00" leaveSpeed="13.89" willPass="1"/>
        </link>
        <link from="111429737#3_0" via=":262504612_2_0" to="111429737#4_0">
            <approaching id="1000000001" impatience="0.00" arrivalTime="9.26" arrivalTimeBraking="39.26" leaveTime="10.65" arrivalSpeed="13.89" arrivalSpeedBraking="0.00" leaveSpeed="13.89" willPass="1"/>
        </link>
    </timestep>
    <timestep id="0.50">
        <link from=":218723588_2_0" via="" to="111349534#3_0">
            <approaching id="1000000000" impatience="0.00" arrivalTime="4.86" arrivalTimeBraking="34.86" leaveTime="5.20" arrivalSpeed="15.00" arrivalSpeedBraking="0.00" leaveSpeed="15.00" willPass="1"/>
        </link>
        <link from=":262504973_2_0" via="" to="111429737#3_0">
            <approaching id="1000000001" impatience="0.00" arrivalTime="5.98" arrivalTimeBraking="35.98" leaveTime="6.34" arrivalSpeed="13.89" arrivalSpeedBraking="0.00" leaveSpeed="13.89" willPass="1"/>
        </link>
        <link from=":267919673_2_0" via="" to="111349534#1_0">
            <approaching id="1000000000" impatience="0.00" arrivalTime="1.09" arrivalTimeBraking="1.19" leaveTime="1.42" arrivalSpeed="15.00" arrivalSpeedBraking="15.00" leaveSpeed="15.00" willPass="1"/>
        </link>
        <link from=":267923750_5_0" via="" to="111349534#2_0">
            <approaching id="1000000000" impatience="0.00" arrivalTime="3.05" arrivalTimeBraking="3.91" leaveTime="3.39" arrivalSpeed="15.00" arrivalSpeedBraking="8.33" leaveSpeed="15.00" willPass="1"/>
        </link>
        <link from=":60581450_5_0" via="" to="111429737#2_0">
            <approaching id="1000000001" impatience="0.00" arrivalTime="4.37" arrivalTimeBraking="34.37" leaveTime="4.73" arrivalSpeed="13.89" arrivalSpeedBraking="0.00" leaveSpeed="13.89" willPass="1"/>
        </link>
        <link from="111349534#1_0" via=":267923750_5_0" to="111349534#2_0">
            <approaching id="1000000000" impatience="0.00" arrivalTime="2.12" arrivalTimeBraking="2.29" leaveTime="3.39" arrivalSpeed="15.00" arrivalSpeedBraking="13.95" leaveSpeed="15.00" willPass="1"/>
        </link>
        <link from="111349534#2_0" via=":218723588_2_0" to="111349534#3_0">
            <approaching id="1000000000" impatience="0.00" arrivalTime="3.91" arrivalTimeBraking="33.91" leaveTime="5.20" arrivalSpeed="15.00" arrivalSpeedBraking="0.00" leaveSpeed="15.00" willPass="1"/>
        </link>
        <link from="111349534#3_0" via=":5043114589_5_0" to="111349534#4_0">
            <approaching id="1000000000" impatience="0.00" arrivalTime="7.58" arrivalTimeBraking="37.58" leaveTime="8.87" arrivalSpeed="15.00" arrivalSpeedBraking="0.00" leaveSpeed="15.00" willPass="1"/>
        </link>
        <link from="111429737#1_0" via=":60581450_5_0" to="111429737#2_0">
            <approaching id="1000000001" impatience="0.00" arrivalTime="3.36" arrivalTimeBraking="5.29" leaveTime="4.72" arrivalSpeed="13.89" arrivalSpeedBraking="3.28" leaveSpeed="13.89" willPass="1"/>
        </link>
        <link from="111429737#2_0" via=":262504973_2_0" to="111429737#3_0">
            <approaching id="1000000001" impatience="0.00" arrivalTime="4.95" arrivalTimeBraking="34.95" leaveTime="6.34" arrivalSpeed="13.89" arrivalSpeedBraking="0.00" leaveSpeed="13.89" willPass="1"/>
        </link>
        <link from="111429737#3_0" via=":262504612_2_0" to="111429737#4_0">
            <approaching id="1000000001" impatience="0.00" arrivalTime="9.26" arrivalTimeBraking="39.26" leaveTime="10.65" arrivalSpeed="13.89" arrivalSpeedBraking="0.00" leaveSpeed="13.89" willPass="1"/>
        </link>
    </timestep>
    <timestep id="0.60">
        <link from=":262504973_2_0" via="" to="111429737#3_0">
            <approaching id="1000000001" impatience="0.00" arrivalTime="5.98" arrivalTimeBraking="35.98" leaveTime="6.34" arrivalSpeed="13.89" arrivalSpeedBraking="0.00" leaveSpeed="13.89" willPass="1"/>
        </link>
        <link from=":267919673_2_0" via="" to="111349534#1_0">
            <approaching id="1000000000" impatience="0.00" arrivalTime="1.09" arrivalTimeBraking="1.19" leaveTime="1.42" arrivalSpeed="15.00" arrivalSpeedBraking="15.00" leaveSpeed="15.00" willPass="1"/>
        </link>
        <link from=":267923750_5_0" via="" to="111349534#2_0">
            <approaching id="1000000000" impatience="0.00" arrivalTime="3.05" arrivalTimeBraking="3.78" leaveTime="3.39" arrivalSpeed="15.00" arrivalSpeedBraking="9.10" leaveSpeed="15.00" willPass="1"/>
        </link>
        <link from=":60581450_5_0" via="" to="111429737#2_0">
            <approaching id="1000000001" impatience="0.00" arrivalTime="4.37" arrivalTimeBraking="34.37" leaveTime="4.73" arrivalSpeed="13.89" arrivalSpeedBraking="0.00" leaveSpeed="13.89" willPass="1"/>
        </link>
        <link from="111349534#1_0" via=":267923750_5_0" to="111349534#2_0">
            <approaching id="1000000000" impatience="0.00" arrivalTime="2.12" arrivalTimeBraking="2.26" leaveTime="3.39" arrivalSpeed="15.00" arrivalSpeedBraking="14.43" leaveSpeed="15.00" willPass="1"/>
        </link>
        <link from="111349534#2_0" via=":218723588_2_0" to="111349534#3_0">
            <approaching id="1000000000" impatience="0.00" arrivalTime="3.91" arrivalTimeBraking="33.91" leaveTime="5.20" arrivalSpeed="15.00" arrivalSpeedBraking="0.00" leaveSpeed="15.00" willPass="1"/>
        </link>
        <link from="111429737#1_0" via=":60581450_5_0" to="111429737#2_0">
            <approaching id="1000000001" impatience="0.00" arrivalTime="3.36" arrivalTimeBraking="4.84" leaveTime="4.72" arrivalSpeed="13.89" arrivalSpeedBraking="4.82" leaveSpeed="13.89" willPass="1"/>
        </link>
        <link from="111429737#2_0" via=":262504973_2_0" to="111429737#3_0">
            <approaching id="1000000001" impatience="0.00" arrivalTime="4.95" arrivalTimeBraking="34.95" leaveTime="6.34" arrivalSpeed="13.89" arrivalSpeedBraking="0.00" leaveSpeed="13.89" willPass="1"/>
        </link>
        <link from="111429737#3_0" via=":262504612_2_0" to="111429737#4_0">
            <approaching id="1000000001" impatience="0.00" arrivalTime="9.26" arrivalTimeBraking="39.26" leaveTime="10.65" arrivalSpeed="13.89" arrivalSpeedBraking="0.00" leaveSpeed="13.89" willPass="1"/>
        </link>
    </timestep>
    <timestep id="0.70">
        <link from=":218725374_2_0" via="" to="111996091#3_0">
            <approaching id="1000000002" impatience="0.00" arrivalTime="6.58" arrivalTimeBraking="36.58" leaveTime="7.37" arrivalSpeed="6.36" arrivalSpeedBraking="0.00" leaveSpeed="6.36" willPass="1"/>
        </link>
        <link from=":262504973_2_0" via="" to="111429737#3_0">
            <approaching id="1000000001" impatience="0.00" arrivalTime="5.98" arrivalTimeBraking="35.98" leaveTime="6.34" arrivalSpeed="13.89" arrivalSpeedBraking="0.00" leaveSpeed="13.89" willPass="1"/>
        </link>
        <link from=":267919673_2_0" via="" to="111349534#1_0">
            <approaching id="1000000000" impatience="0.00" arrivalTime="1.09" arrivalTimeBraking="1.19" leaveTime="1.42" arrivalSpeed="15.00" arrivalSpeedBraking="15.00" leaveSpeed="15.00" willPass="1"/>
        </link>
        <link from=":267923750_5_0" via="" to="111349534#2_0">
            <approaching id="1000000000" impatience="0.00" arrivalTime="3.05" arrivalTimeBraking="3.67" leaveTime="3.39" arrivalSpeed="15.00" arrivalSpeedBraking="9.82" leaveSpeed="15.00" willPass="1"/>
        </link>
        <link from=":60581450_5_0" via="" to="111429737#2_0">
            <approaching id="1000000001" impatience="0.00" arrivalTime="4.37" arrivalTimeBraking="34.37" leaveTime="4.73" arrivalSpeed="13.89" arrivalSpeedBraking="0.00" leaveSpeed="13.89" willPass="1"/>
        </link>
        <link from="-20464340#0_0" via=":218725374_2_0" to="111996091#3_0">
            <approaching id="1000000002" impatience="0.00" arrivalTime="5.74" arrivalTimeBraking="35.74" leaveTime="7.67" arrivalSpeed="8.17" arrivalSpeedBraking="0.00" leaveSpeed="6.36" willPass="1"/>
        </link>
        <link from="111349534#1_0" via=":267923750_5_0" to="111349534#2_0">
            <approaching id="1000000000" impatience="0.00" arrivalTime="2.12" arrivalTimeBraking="2.23" leaveTime="3.39" arrivalSpeed="15.00" arrivalSpeedBraking="14.89" leaveSpeed="15.00" willPass="1"/>
        </link>
        <link from="111349534#2_0" via=":218723588_2_0" to="111349534#3_0">
            <approaching id="1000000000" impatience="0.00" arrivalTime="3.91" arrivalTimeBraking="33.91" leaveTime="5.20" arrivalSpeed="15.00" arrivalSpeedBraking="0.00" leaveSpeed="15.00" willPass="1"/>
        </link>
        <link from="111429737#1_0" via=":60581450_5_0" to="111429737#2_0">
            <approaching id="1000000001" impatience="0.00" arrivalTime="3.36" arrivalTimeBraking="4.56" leaveTime="4.72" arrivalSpeed="13.89" arrivalSpeedBraking="5.98" leaveSpeed="13.89" willPass="1"/>
        </link>
        <link from="111429737#2_0" via=":262504973_2_0" to="111429737#3_0">
            <approaching id="1000000001" impatience="0.00" arrivalTime="4.95" arrivalTimeBraking="34.95" leaveTime="6.34" arrivalSpeed="13.89" arrivalSpeedBraking="0.00" leaveSpeed="13.89" willPass="1"/>
        </link>
        <link from="111429737#3_0" via=":262504612_2_0" to="111429737#4_0">
            <approaching id="1000000001" impatience="0.00" arrivalTime="9.26" arrivalTimeBraking="39.26" leaveTime="10.65" arrivalSpeed="13.89" arrivalSpeedBraking="0.00" leaveSpeed="13.89" willPass="1"/>
        </link>
        <link from="111996091#3_0" via=":142876343_4_0" to="-29149366#5_0">
            <approaching id="1000000002" impatience="0.00" arrivalTime="17.50" arrivalTimeBraking="47.50" leaveTime="18.87" arrivalSpeed="13.89" arrivalSpeedBraking="0.00" leaveSpeed="6.56" willPass="0"/>
        </link>
    </timestep>
    <timestep id="0.80">
        <link from=":218723588_2_0" via="" to="111349534#3_0">
            <approaching id="1000000000" impatience="0.00" arrivalTime="4.86" arrivalTimeBraking="34.86" leaveTime="5.20" arrivalSpeed="15.00" arrivalSpeedBraking="0.00" leaveSpeed="15.00" willPass="1"/>
        </link>
        <link from=":218725374_2_0" via="" to="111996091#3_0">
            <approaching id="1000000002" impatience="0.00" arrivalTime="6.58" arrivalTimeBraking="36.58" leaveTime="7.37" arrivalSpeed="6.36" arrivalSpeedBraking="0.00" leaveSpeed="6.36" willPass="1"/>
        </link>
        <link from=":262504973_2_0" via="" to="111429737#3_0">
            <approaching id="1000000001" impatience="0.00" arrivalTime="5.98" arrivalTimeBraking="35.98" leaveTime="6.34" arrivalSpeed="13.89" arrivalSpeedBraking="0.00" leaveSpeed="13.89" willPass="1"/>
        </link>
        <link from=":267919673_2_0" via="" to="111349534#1_0">
            <approaching id="1000000000" impatience="0.00" arrivalTime="1.09" arrivalTimeBraking="1.19" leaveTime="1.42" arrivalSpeed="15.00" arrivalSpeedBraking="15.00" leaveSpeed="15.00" willPass="1"/>
        </link>
        <link from=":267923750_5_0" via="" to="111349534#2_0">
            <approaching id="1000000000" impatience="0.00" arrivalTime="3.05" arrivalTimeBraking="3.57" leaveTime="3.39" arrivalSpeed="15.00" arrivalSpeedBraking="10.48" leaveSpeed="15.00" willPass="1"/>
        </link>
        <link from=":60581450_5_0" via="" to="111429737#2_0">
            <approaching id="1000000001" impatience="0.00" arrivalTime="4.37" arrivalTimeBraking="34.37" leaveTime="4.73" arrivalSpeed="13.89" arrivalSpeedBraking="0.00" leaveSpeed="13.89" willPass="1"/>
        </link>
        <link from="-20464340#0_0" via=":218725374_2_0" to="111996091#3_0">
            <approaching id="1000000002" impatience="0.00" arrivalTime="5.74" arrivalTimeBraking="35.74" leaveTime="7.67" arrivalSpeed="8.17" arrivalSpeedBraking="0.00" leaveSpeed="6.36" willPass="1"/>
        </link>
        <link from="111349534#1_0" via=":267923750_5_0" to="111349534#2_0">
            <approaching id="1000000000" impatience="0.00" arrivalTime="2.12" arrivalTimeBraking="2.22" leaveTime="3.39" arrivalSpeed="15.00" arrivalSpeedBraking="15.00" leaveSpeed="15.00" willPass="1"/>
        </link>
        <link from="111349534#2_0" via=":218723588_2_0" to="111349534#3_0">
            <approaching id="1000000000" impatience="0.00" arrivalTime="3.91" arrivalTimeBraking="33.91" leaveTime="5.20" arrivalSpeed="15.00" arrivalSpeedBraking="0.00" leaveSpeed="15.00" willPass="1"/>
        </link>
        <link from="111349534#3_0" via=":5043114589_5_0" to="111349534#4_0">
            <approaching id="1000000000" impatience="0.00" arrivalTime="7.58" arrivalTimeBraking="37.58" leaveTime="8.87" arrivalSpeed="15.00" arrivalSpeedBraking="0.00" leaveSpeed="15.00" willPass="1"/>
        </link>
        <link from="111429737#1_0" via=":60581450_5_0" to="111429737#2_0">
            <approaching id="1000000001" impatience="0.00" arrivalTime="3.36" arrivalTimeBraking="4.34" leaveTime="4.72" arrivalSpeed="13.89" arrivalSpeedBraking="6.95" leaveSpeed="13.89" willPass="1"/>
        </link>
        <link from="111429737#2_0" via=":262504973_2_0" to="111429737#3_0">
            <approaching id="1000000001" impatience="0.00" arrivalTime="4.95" arrivalTimeBraking="34.95" leaveTime="6.34" arrivalSpeed="13.89" arrivalSpeedBraking="0.00" leaveSpeed="13.89" willPass="1"/>
        </link>
        <link from="111429737#3_0" via=":262504612_2_0" to="111429737#4_0">
            <approaching id="1000000001" impatience="0.00" arrivalTime="9.26" arrivalTimeBraking="39.26" leaveTime="10.65" arrivalSpeed="13.89" arrivalSpeedBraking="0.00" leaveSpeed="13.89" willPass="1"/>
        </link>
        <link from="111996091#3_0" via=":142876343_4_0" to="-29149366#5_0">
            <approaching id="1000000002" impatience="0.00" arrivalTime="17.50" arrivalTimeBraking="47.50" leaveTime="18.87" arrivalSpeed="13.89" arrivalSpeedBraking="0.00" leaveSpeed="6.56" willPass="0"/>
        </link>
    </timestep>
    <timestep id="0.90">
        <link from=":218723588_2_0" via="" to="111349534#3_0">
            <approaching id="1000000000" impatience="0.00" arrivalTime="4.86" arrivalTimeBraking="34.86" leaveTime="5.20" arrivalSpeed="15.00" arrivalSpeedBraking="0.00" leaveSpeed="15.00" willPass="1"/>
        </link>
        <link from=":218725374_2_0" via="" to="111996091#3_0">
            <approaching id="1000000002" impatience="0.00" arrivalTime="6.58" arrivalTimeBraking="36.58" leaveTime="7.37" arrivalSpeed="6.36" arrivalSpeedBraking="0.00" leaveSpeed="6.36" willPass="1"/>
        </link>
        <link from=":262504973_2_0" via="" to="111429737#3_0">
            <approaching id="1000000001" impatience="0.00" arrivalTime="5.98" arrivalTimeBraking="35.98" leaveTime="6.34" arrivalSpeed="13.89" arrivalSpeedBraking="0.00" leaveSpeed="13.89" willPass="1"/>
        </link>
        <link from=":267919673_2_0" via="" to="111349534#1_0">
            <approaching id="1000000000" impatience="0.00" arrivalTime="1.09" arrivalTimeBraking="1.19" leaveTime="1.42" arrivalSpeed="15.00" arrivalSpeedBraking="15.00" leaveSpeed="15.00" willPass="1"/>
        </link>
        <link from=":267923750_5_0" via="" to="111349534#2_0">
            <approaching id="1000000000" impatience="0.00" arrivalTime="3.05" arrivalTimeBraking="3.49" leaveTime="3.39" arrivalSpeed="15.00" arrivalSpeedBraking="11.11" leaveSpeed="15.00" willPass="1"/>
        </link>
        <link from=":60581450_5_0" via="" to="111429737#2_0">
            <approaching id="1000000001" impatience="0.00" arrivalTime="4.37" arrivalTimeBraking="34.37" leaveTime="4.73" arrivalSpeed="13.89" arrivalSpeedBraking="0.00" leaveSpeed="13.89" willPass="1"/>
        </link>
        <link from="-20464340#0_0" via=":218725374_2_0" to="111996091#3_0">
            <approaching id="1000000002" impatience="0.00" arrivalTime="5.74" arrivalTimeBraking="35.74" leaveTime="7.67" arrivalSpeed="8.17" arrivalSpeedBraking="0.00" leaveSpeed="6.36" willPass="1"/>
        </link>
        <link from="111349534#1_0" via=":267923750_5_0" to="111349534#2_0">
            <approaching id="1000000000" impatience="0.00" arrivalTime="2.12" arrivalTimeBraking="2.22" leaveTime="3.39" arrivalSpeed="15.00" arrivalSpeedBraking="15.00" leaveSpeed="15.00" willPass="1"/>
        </link>
        <link from="111349534#2_0" via=":218723588_2_0" to="111349534#3_0">
            <approaching id="1000000000" impatience="0.00" arrivalTime="3.91" arrivalTimeBraking="6.16" leaveTime="5.20" arrivalSpeed="15.00" arrivalSpeedBraking="2.74" leaveSpeed="15.00" willPass="1"/>
        </link>
        <link from="111349534#3_0" via=":5043114589_5_0" to="111349534#4_0">
            <approaching id="1000000000" impatience="0.00" arrivalTime="7.58" arrivalTimeBraking="37.58" leaveTime="8.87" arrivalSpeed="15.00" arrivalSpeedBraking="0.00" leaveSpeed="15.00" willPass="1"/>
        </link>
        <link from="111429737#1_0" via=":60581450_5_0" to="111429737#2_0">
            <approaching id="1000000001" impatience="0.00" arrivalTime="3.36" arrivalTimeBraking="4.18" leaveTime="4.72" arrivalSpeed="13.89" arrivalSpeedBraking="7.79" leaveSpeed="13.89" willPass="1"/>
        </link>
        <link from="111429737#2_0" via=":262504973_2_0" to="111429737#3_0">
            <approaching id="1000000001" impatience="0.00" arrivalTime="4.95" arrivalTimeBraking="34.95" leaveTime="6.34" arrivalSpeed="13.89" arrivalSpeedBraking="0.00" leaveSpeed="13.89" willPass="1"/>
        </link>
        <link from="111429737#3_0" via=":262504612_2_0" to="111429737#4_0">
            <approaching id="1000000001" impatience="0.00" arrivalTime="9.26" arrivalTimeBraking="39.26" leaveTime="10.65" arrivalSpeed="13.89" arrivalSpeedBraking="0.00" leaveSpeed="13.89" willPass="1"/>
        </link>
        <link from="111996091#3_0" via=":142876343_4_0" to="-29149366#5_0">
            <approaching id="1000000002" impatience="0.00" arrivalTime="17.50" arrivalTimeBraking="47.50" leaveTime="18.87" arrivalSpeed="13.89" arrivalSpeedBraking="0.00" leaveSpeed="6.56" willPass="0"/>
        </link>
    </timestep>
    <timestep id="1.00">
        <link from=":218723588_2_0" via="" to="111349534#3_0">
            <approaching id="1000000000" impatience="0.00" arrivalTime="4.86" arrivalTimeBraking="34.86" leaveTime="5.20" arrivalSpeed="15.00" arrivalSpeedBraking="0.00" leaveSpeed="15.00" willPass="1"/>
        </link>
        <link from=":218725374_2_0" via="" to="111996091#3_0">
            <approaching id="1000000002" impatience="0.00" arrivalTime="6.58" arrivalTimeBraking="36.58" leaveTime="7.37" arrivalSpeed="6.36" arrivalSpeedBraking="0.00" leaveSpeed="6.36" willPass="1"/>
        </link>
        <link from=":262504973_2_0" via="" to="111429737#3_0">
            <approaching id="1000000001" impatience="0.00" arrivalTime="5.98" arrivalTimeBraking="35.98" leaveTime="6.34" arrivalSpeed="13.89" arrivalSpeedBraking="0.00" leaveSpeed="13.89" willPass="1"/>
        </link>
        <link from=":267919673_2_0" via="" to="111349534#1_0">
            <approaching id="1000000000" impatience="0.00" arrivalTime="1.09" arrivalTimeBraking="1.19" leaveTime="1.42" arrivalSpeed="15.00" arrivalSpeedBraking="15.00" leaveSpeed="15.00" willPass="1"/>
        </link>
        <link from=":267923750_5_0" via="" to="111349534#2_0">
            <approaching id="1000000000" impatience="0.00" arrivalTime="3.05" arrivalTimeBraking="3.42" leaveTime="3.39" arrivalSpeed="15.00" arrivalSpeedBraking="11.70" leaveSpeed="15.00" willPass="1"/>
        </link>
        <link from=":60581450_5_0" via="" to="111429737#2_0">
            <approaching id="1000000001" impatience="0.00" arrivalTime="4.37" arrivalTimeBraking="34.37" leaveTime="4.73" arrivalSpeed="13.89" arrivalSpeedBraking="0.00" leaveSpeed="13.89" willPass="1"/>
        </link>
        <link from=":cluster_1702411784_262504921_8_0" via=":cluster_1702411784_262504921_13_0" to="158004770_0">
            <approaching id="1000000003" impatience="0.00" arrivalTime="2.63" arrivalTimeBraking="2.87" leaveTime="4.34" arrivalSpeed="7.91" arrivalSpeedBraking="7.91" leaveSpeed="7.91" willPass="1"/>
        </link>
        <link from=":cluster_1702411784_262504921_13_0" via="" to="158004770_0">