[TITLE]
Export input file via plugin ExportEpanetInpFiles. 

[JUNCTIONS]
;ID              	Elev        	Demand      	Pattern         
 n1              	73.2105     	0.33012     	Residential     	;AMR & PRESSURE SENSOR
 n2              	73.8737     	0.16992     	Residential     	;AMR
 n3              	73.1782     	0.1908      	Residential     	;AMR
 n4              	68.2608     	0.7506      	Residential     	;AMR & PRESSURE SENSOR
 n5              	65.5695     	0.2322      	Residential     	;AMR
 n6              	70.9095     	0.2466      	Residential     	;AMR
 n7              	75.9175     	0.37836     	Residential     	;AMR
 n8              	64.4833     	0.30132     	Residential     	;AMR
 n9              	69.2626     	0.40464     	Residential     	;AMR
 n10             	74.3469     	0.08424     	Residential     	;AMR
 n11             	63.0588     	0.54432     	Residential     	;AMR
 n12             	68.2274     	0.05832     	Residential     	;AMR
 n13             	61.9901     	0.2358      	Residential     	;AMR
 n14             	68.5805     	0.01944     	Residential     	;AMR
 n15             	70.9492     	0.19152     	Residential     	;AMR
 n16             	68.7986     	0.09648     	Residential     	;AMR
 n17             	60.5935     	0.44892     	Residential     	;AMR
 n18             	67.142      	0.07236     	Residential     	;AMR
 n19             	73.3626     	0.12924     	Residential     	;AMR
 n20             	65.9549     	0.14436     	Residential     	;AMR
 n21             	59.6849     	0.06084     	Residential     	;AMR
 n22             	76.1173     	0.15084     	Residential     	;AMR
 n23             	64.2052     	0.02869     	Residential     	;AMR
 n24             	67.8217     	0.04392     	Residential     	;AMR
 n25             	58.9717     	0.34747     	Residential     	;AMR
 n26             	61.6305     	0.00468     	Residential     	;AMR
 n27             	65.7763     	0.13068     	Residential     	;AMR
 n28             	61.4047     	0.0         	Residential     	;AMR
 n29             	71.5429     	0.04896     	Residential     	;AMR
 n30             	75.3299     	0.30564     	Residential     	;AMR
 n31             	65.0059     	0.11628     	Residential     	;AMR & PRESSURE SENSOR
 n32             	71.159      	0.07992     	Residential     	;AMR
 n33             	60.5902     	0.00288     	Residential     	;AMR
 n34             	65.8482     	0.11232     	Residential     	;AMR
 n35             	59.6258     	0.0         	Residential     	;AMR
 n36             	70.1959     	0.2664      	Residential     	;AMR
 n37             	63.9172     	0.0846      	Residential     	;AMR
 n38             	58.5794     	0.18889     	Residential     	;AMR
 n39             	62.9791     	0.01656     	Residential     	;AMR
 n40             	60.2093     	0.342       	Residential     	;AMR
 n41             	69.2961     	0.17028     	Residential     	;AMR
 n42             	61.0635     	0.243       	Residential     	;AMR
 n43             	61.8585     	0.11808     	Residential     	;AMR
 n44             	66.1177     	0.03888     	Residential     	;AMR
 n45             	62.5989     	0.27288     	Residential     	;AMR
 n46             	38.8781     	0.06966     	Residential     	;NULL
 n47             	38.7028     	0.14616     	Residential     	;NULL
 n48             	40.1135     	0.21785     	Residential     	;NULL
 n49             	34.8665     	0.10363     	Residential     	;NULL
 n50             	44.7174     	0.38988     	Residential     	;NULL
 n51             	29.8508     	0.3334      	Residential     	;NULL
 n52             	33.2106     	0.04891     	Residential     	;NULL
 n53             	29.1285     	0.29952     	Residential     	;NULL
 n54             	36.6718     	0.0848      	Residential     	;PRESSURE SENSOR
 n55             	43.7044     	0.25355     	Residential     	;NULL
 n56             	32.7019     	0.31822     	Residential     	;NULL
 n57             	34.5788     	0.06806     	Residential     	;NULL
 n58             	30.1017     	0.16375     	Residential     	;NULL
 n59             	40.544      	0.13478     	Residential     	;NULL
 n60             	36.5477     	0.08755     	Residential     	;NULL
 n61             	36.5714     	0.02633     	Residential     	;NULL
 n62             	35.96       	0.07906     	Residential     	;NULL
 n63             	37.0071     	0.15595     	Residential     	;NULL
 n64             	34.9234     	0.15692     	Residential     	;NULL
 n65             	36.2244     	0.04244     	Residential     	;NULL
 n66             	34.276      	0.07326     	Residential     	;NULL
 n67             	32.5016     	0.40471     	Residential     	;NULL
 n68             	41.0943     	0.17813     	Residential     	;NULL
 n69             	27.7774     	0.37723     	Residential     	;NULL
 n70             	29.8554     	0.1782      	Residential     	;NULL
 n71             	30.0823     	0.24183     	Residential     	;NULL
 n72             	34.4673     	0.01949     	Residential     	;NULL
 n73             	33.0899     	0.03154     	Residential     	;NULL
 n74             	32.3582     	0.0491      	Residential     	;NULL
 n75             	40.1001     	0.02443     	Residential     	;NULL
 n76             	30.5603     	0.09745     	Residential     	;NULL
 n77             	33.9737     	0.02948     	Residential     	;NULL
 n78             	29.2383     	0.09988     	Residential     	;NULL
 n79             	32.7267     	0.18274     	Residential     	;NULL
 n80             	27.7113     	0.2583      	Residential     	;NULL
 n81             	31.0269     	0.17222     	Residential     	;NULL
 n82             	39.6884     	0.17608     	Residential     	;NULL
 n83             	35.7824     	0.153       	Residential     	;NULL
 n84             	28.8092     	0.14195     	Residential     	;NULL
 n85             	38.6811     	0.00108     	Residential     	;NULL
 n86             	38.1149     	0.18198     	Residential     	;NULL
 n87             	35.2466     	0.00612     	Residential     	;NULL
 n88             	34.2301     	0.07697     	Residential     	;NULL
 n89             	31.7913     	0.01813     	Residential     	;NULL
 n90             	36.3955     	0.10692     	Residential     	;NULL
 n91             	33.0649     	0.01332     	Residential     	;NULL
 n92             	33.1049     	0.01573     	Residential     	;NULL
 n93             	29.3998     	0.16114     	Residential     	;NULL
 n94             	27.5188     	0.53474     	Residential     	;NULL
 n95             	25.4416     	0.0         	Residential     	;NULL
 n96             	24.1924     	0.1387      	Residential     	;NULL
 n97             	27.2125     	0.42466     	Residential     	;NULL
 n98             	25.5648     	0.12312     	Residential     	;NULL
 n99             	23.3478     	0.17172     	Residential     	;NULL
 n100            	25.0658     	0.36382     	Residential     	;NULL
 n101            	24.157      	0.126       	Residential     	;NULL
 n102            	23.6941     	0.09448     	Residential     	;NULL
 n103            	24.3635     	0.08467     	Residential     	;NULL
 n104            	20.9592     	0.0         	Residential     	;NULL
 n105            	24.022      	0.0014      	Residential     	;PRESSURE SENSOR
 n106            	23.5008     	0.11196     	Residential     	;NULL
 n107            	23.541      	0.00074     	Residential     	;NULL
 n108            	19.8166     	0.0         	Residential     	;NULL
 n109            	23.4984     	0.000578    	Residential     	;NULL
 n110            	23.8384     	0.02804     	Residential     	;NULL
 n111            	25.9972     	0.36893     	Residential     	;NULL
 n112            	23.5656     	0.11707     	Residential     	;NULL
 n113            	23.6071     	0.12566     	Residential     	;NULL
 n114            	20.4764     	0.08237     	Residential     	;PRESSURE SENSOR
 n115            	23.8321     	0.00648     	Residential     	;NULL
 n116            	20.911      	0.19019     	Residential     	;NULL
 n117            	26.9614     	0.25834     	Residential     	;NULL
 n118            	19.0993     	0.0         	Residential     	;NULL
 n119            	20.0895     	0.24257     	Residential     	;NULL
 n120            	22.6201     	0.08496     	Residential     	;NULL
 n121            	19.3967     	0.00024     	Residential     	;NULL
 n122            	22.4946     	0.10166     	Residential     	;NULL
 n123            	21.5338     	0.13435     	Residential     	;NULL
 n124            	22.6501     	0.01188     	Residential     	;NULL
 n125            	20.5899     	0.05        	Residential     	;NULL
 n126            	19.167      	0.23803     	Residential     	;NULL
 n127            	19.1187     	0.00596     	Residential     	;NULL
 n128            	22.0969     	0.11182     	Residential     	;NULL
 n129            	25.901      	0.14202     	Residential     	;NULL
 n130            	22.1732     	0.2047      	Residential     	;NULL
 n131            	19.552      	0.11822     	Residential     	;NULL
 n132            	20.3762     	0.13212     	Residential     	;NULL
 n133            	22.5783     	0.27927     	Residential     	;NULL
 n134            	19.2113     	0.00896     	Residential     	;NULL
 n135            	19.1205     	0.11318     	Residential     	;NULL
 n136            	20.3013     	0.33602     	Residential     	;NULL
 n137            	19.6856     	0.03676     	Residential     	;NULL
 n138            	20.838      	0.02727     	Residential     	;NULL
 n139            	19.6632     	0.0         	Residential     	;NULL
 n140            	27.3504     	0.11668     	Residential     	;NULL
 n141            	23.1252     	0.21607     	Residential     	;NULL
 n142            	19.6239     	0.03985     	Residential     	;NULL
 n143            	20.8754     	0.12398     	Residential     	;NULL
 n144            	26.9472     	0.33964     	Residential     	;NULL
 n145            	22.1344     	0.12636     	Residential     	;NULL
 n146            	21.8276     	0.173       	Residential     	;NULL
 n147            	19.9725     	0.1579      	Residential     	;NULL
 n148            	20.1477     	0.072       	Residential     	;NULL
 n149            	20.9496     	0.0563      	Residential     	;NULL
 n150            	22.6861     	0.0171      	Residential     	;NULL
 n151            	19.8447     	0.03215     	Residential     	;NULL
 n152            	19.1334     	0.0         	Residential     	;NULL
 n153            	22.6394     	0.21319     	Residential     	;NULL
 n154            	20.3582     	0.16153     	Residential     	;NULL
 n155            	26.3852     	0.08989     	Residential     	;NULL
 n156            	20.0619     	0.0168      	Residential     	;NULL
 n157            	20.4464     	0.0268      	Residential     	;NULL
 n158            	19.7472     	0.0         	Residential     	;NULL
 n159            	27.0053     	0.14767     	Residential     	;NULL
 n160            	20.2078     	0.23962     	Residential     	;NULL
 n161            	21.3197     	0.0         	Residential     	;NULL
 n162            	26.9729     	0.02106     	Residential     	;NULL
 n163            	21.6096     	0.04685     	Residential     	;PRESSURE SENSOR
 n164            	20.2745     	0.17852     	Residential     	;NULL
 n165            	19.8081     	0.32357     	Residential     	;NULL
 n166            	20.275      	0.23162     	Residential     	;NULL
 n167            	22.5413     	0.15163     	Residential     	;NULL
 n168            	20.4384     	0.04698     	Residential     	;NULL
 n169            	27.0181     	0.06359     	Residential     	;NULL
 n170            	23.2339     	0.56804     	Residential     	;NULL
 n171            	20.6067     	0.21852     	Residential     	;NULL
 n172            	19.1601     	0.05054     	Residential     	;NULL
 n173            	21.0596     	0.17939     	Residential     	;NULL
 n174            	21.4292     	0.0         	Residential     	;NULL
 n175            	19.3536     	0.11794     	Residential     	;NULL
 n176            	27.7038     	0.11452     	Residential     	;NULL
 n177            	19.3479     	0.16733     	Residential     	;NULL
 n178            	21.9026     	0.03784     	Residential     	;NULL
 n179            	19.4895     	0.0         	Residential     	;NULL
 n180            	22.7778     	0.0212      	Residential     	;NULL
 n181            	23.7049     	0.12924     	Residential     	;NULL
 n182            	25.085      	0.16182     	Residential     	;NULL
 n183            	19.3859     	0.13435     	Residential     	;NULL
 n184            	27.2441     	0.05353     	Residential     	;NULL
 n185            	19.0789     	0.15725     	Residential     	;NULL
 n186            	21.8196     	0.11016     	Residential     	;NULL
 n187            	19.0349     	0.02351     	Residential     	;NULL
 n188            	18.8768     	0.00036     	Residential     	;PRESSURE SENSOR
 n189            	18.6826     	0.11642     	Residential     	;NULL
 n190            	19.6529     	0.05832     	Residential     	;NULL
 n191            	27.4799     	0.34571     	Residential     	;NULL
 n192            	22.206      	0.25493     	Residential     	;NULL
 n193            	19.7041     	0.02736     	Residential     	;NULL
 n194            	19.7601     	0.02025     	Residential     	;NULL
 n195            	16.8285     	0.0994      	Residential     	;NULL
 n196            	19.8226     	0.07574     	Residential     	;NULL
 n197            	16.5799     	0.0         	Residential     	;NULL
 n198            	22.8492     	0.0         	Residential     	;NULL
 n199            	16.5475     	0.15941     	Residential     	;NULL
 n200            	18.2407     	0.14288     	Residential     	;NULL
 n201            	19.106      	0.06221     	Residential     	;NULL
 n202            	17.9436     	0.02819     	Residential     	;NULL
 n203            	22.0332     	0.1908      	Residential     	;NULL
 n204            	16.436      	0.06998     	Residential     	;NULL
 n205            	6.9791      	0.0         	Residential     	;NULL
 n206            	7.9123      	0.0         	Residential     	;NULL
 n207            	2.0579      	0.0         	Residential     	;NULL
 n208            	5.9061      	0.0         	Residential     	;NULL
 n209            	4.6117      	0.0         	Residential     	;NULL
 n210            	2.7477      	0.0         	Residential     	;NULL
 n211            	4.8451      	0.0         	Residential     	;NULL
 n212            	2.3488      	0.0         	Residential     	;NULL
 n213            	3.2427      	0.0         	Residential     	;NULL
 n214            	16.8316     	0.00894     	Residential     	;NULL
 n215            	2.0066      	0.0         	Residential     	;PRESSURE SENSOR
 n216            	2.4091      	0.0         	Residential     	;NULL
 n217            	1.8712      	0.0         	Residential     	;NULL
 n218            	29.6006     	0.13648     	Residential     	;NULL
 n219            	28.4518     	0.12053     	Residential     	;NULL
 n220            	30.7523     	0.18137     	Residential     	;NULL
 n221            	28.2232     	0.08975     	Residential     	;NULL
 n222            	28.0585     	0.00828     	Residential     	;NULL
 n223            	28.5629     	0.04495     	Residential     	;NULL
 n224            	26.9114     	0.11122     	Residential     	;NULL
 n225            	25.5        	0.19604     	Residential     	;NULL
 n226            	6.113       	0.0         	Residential     	;NULL
 n227            	5.7901      	0.0         	Residential     	;NULL
 n228            	27.3852     	0.10226     	Residential     	;NULL
 n229            	21.5781     	0.17842     	Residential     	;PRESSURE SENSOR
 n230            	28.3962     	0.04198     	Residential     	;NULL
 n231            	4.8639      	0.0         	Residential     	;NULL
 n232            	26.0377     	0.04068     	Residential     	;NULL
 n233            	4.4157      	0.0         	Residential     	;NULL
 n234            	5.1036      	0.09742     	Residential     	;NULL
 n235            	24.1047     	0.27477     	Residential     	;NULL
 n236            	3.0871      	0.0         	Residential     	;NULL
 n237            	4.0834      	0.13003     	Residential     	;NULL
 n238            	24.6076     	0.34164     	Residential     	;NULL
 n239            	22.9677     	0.23594     	Residential     	;NULL
 n240            	28.8065     	0.20297     	Residential     	;NULL
 n241            	22.1953     	0.17762     	Residential     	;NULL
 n242            	2.3582      	0.0         	Residential     	;NULL
 n243            	2.6564      	0.0         	Residential     	;NULL
 n244            	21.2523     	0.58954     	Residential     	;NULL
 n245            	28.661      	0.10076     	Residential     	;NULL
 n246            	1.9044      	0.0         	Residential     	;NULL
 n247            	2.117       	0.0         	Residential     	;NULL
 n248            	29.31       	0.16481     	Residential     	;NULL
 n249            	28.5347     	0.04522     	Residential     	;NULL
 n250            	28.414      	0.08975     	Residential     	;NULL
 n251            	21.3004     	0.189       	Residential     	;NULL
 n252            	24.7044     	0.13626     	Residential     	;NULL
 n253            	2.2871      	0.18871     	Residential     	;NULL
 n254            	2.2175      	0.00324     	Residential     	;NULL
 n255            	20.9378     	0.00072     	Residential     	;NULL
 n256            	17.777      	0.24264     	Residential     	;NULL
 n257            	28.3219     	0.05373     	Residential     	;NULL
 n258            	24.7483     	0.05029     	Residential     	;NULL
 n259            	24.601      	0.0         	Residential     	;NULL
 n260            	17.7457     	0.1265      	Residential     	;NULL
 n261            	16.7006     	0.14148     	Residential     	;NULL
 n262            	24.2606     	0.21595     	Residential     	;NULL
 n263            	24.6696     	0.10402     	Residential     	;NULL
 n264            	20.6282     	0.0         	Residential     	;NULL
 n265            	28.4319     	0.03071     	Residential     	;NULL
 n266            	19.968      	0.32069     	Residential     	;NULL
 n267            	23.3745     	0.13117     	Residential     	;NULL
 n268            	21.9354     	0.11255     	Residential     	;NULL
 n269            	26.1653     	0.09756     	Residential     	;NULL
 n270            	20.8216     	0.1773      	Residential     	;NULL
 n271            	34.039      	0.14744     	Residential     	;NULL
 n272            	20.1368     	0.13003     	Residential     	;NULL
 n273            	24.5091     	0.26946     	Residential     	;NULL
 n274            	32.8648     	0.01168     	Residential     	;NULL
 n275            	29.2533     	0.08345     	Residential     	;NULL
 n276            	21.3002     	0.20909     	Residential     	;NULL
 n277            	22.448      	0.01692     	Residential     	;NULL
 n278            	22.0132     	0.11088     	Residential     	;NULL
 n279            	21.7544     	0.08381     	Residential     	;NULL
 n280            	29.6042     	0.11866     	Residential     	;NULL
 n281            	31.2675     	0.11993     	Residential     	;NULL
 n282            	30.4949     	0.15779     	Residential     	;NULL
 n283            	27.4233     	0.1444      	Residential     	;NULL
 n284            	26.3666     	0.18079     	Residential     	;NULL
 n285            	20.4612     	0.1896      	Residential     	;NULL
 n286            	29.0388     	0.25715     	Residential     	;NULL
 n287            	33.0444     	0.0         	Residential     	;NULL
 n288            	21.6218     	3.5         	Residential     	;PRESSURE SENSOR
 n289            	27.4463     	0.0464      	Residential     	;NULL
 n290            	24.6247     	0.15876     	Residential     	;NULL
 n291            	32.4985     	0.15656     	Residential     	;NULL
 n292            	31.9495     	0.08428     	Residential     	;NULL
 n293            	26.5282     	0.1674      	Residential     	;NULL
 n294            	26.5192     	0.04099     	Residential     	;NULL
 n295            	30.8274     	0.14575     	Residential     	;NULL
 n296            	32.1966     	0.0945      	Residential     	;PRESSURE SENSOR
 n297            	23.3934     	0.18839     	Residential     	;NULL
 n298            	34.8909     	0.0         	Residential     	;NULL
 n299            	26.7205     	0.18144     	Residential     	;NULL
 n300            	34.7777     	0.0         	Residential     	;NULL
 n301            	23.52       	0.0682      	Residential     	;NULL
 n302            	23.3123     	0.16222     	Residential     	;NULL
 n303            	34.4994     	0.0         	Residential     	;NULL
 n304            	32.978      	0.10766     	Residential     	;NULL
 n305            	25.4869     	0.22993     	Residential     	;NULL
 n306            	23.6839     	0.22514     	Residential     	;NULL
 n307            	31.4204     	0.14926     	Residential     	;NULL
 n308            	23.3861     	0.09626     	Residential     	;NULL
 n309            	23.1678     	0.26712     	Residential     	;NULL
 n310            	22.36       	0.14803     	Residential     	;NULL
 n311            	29.5998     	0.01915     	Residential     	;NULL
 n312            	22.0779     	0.13349     	Residential     	;NULL
 n313            	21.7616     	0.15516     	Residential     	;NULL
 n314            	29.6902     	0.08208     	Residential     	;NULL
 n315            	22.7969     	0.14105     	Residential     	;NULL
 n316            	29.3551     	0.11466     	Residential     	;NULL
 n317            	22.2884     	0.08093     	Residential     	;NULL
 n318            	23.5639     	0.16934     	Residential     	;NULL
 n319            	30.4617     	0.05263     	Residential     	;NULL
 n320            	28.2142     	0.10174     	Residential     	;NULL
 n321            	21.897      	0.11131     	Residential     	;NULL
 n322            	26.9371     	0.0         	Residential     	;NULL
 n323            	26.0702     	0.21002     	Residential     	;NULL
 n324            	24.9686     	0.0126      	Residential     	;NULL
 n325            	24.3047     	0.19022     	Residential     	;NULL
 n326            	23.6854     	0.18718     	Residential     	;NULL
 n327            	22.2849     	0.21555     	Residential     	;NULL
 n328            	22.1954     	0.0527      	Residential     	;NULL
 n329            	24.3743     	0.0072      	Residential     	;NULL
 n330            	22.0274     	0.0851      	Residential     	;NULL
 n331            	22.9257     	0.03082     	Residential     	;NULL
 n332            	18.0        	0.0058      	Residential     	;PRESSURE SENSOR
 n333            	18.0        	0.03938     	Residential     	;NULL
 n334            	18.0        	0.07502     	Residential     	;NULL
 n335            	27.45       	0.12953     	Residential     	;NULL
 n336            	26.0        	0.30726     	Residential     	;NULL
 n337            	4.1         	0.0         	Residential     	;NULL
 n338            	28.2        	0.0         	Residential     	;NULL
 n339            	22.8        	0.21607     	Residential     	;NULL
 n340            	30.1        	0.45761     	Residential     	;NULL
 n341            	22.8        	0.00216     	Residential     	;NULL
 n342            	27.36       	0.0         	Residential     	;PRESSURE SENSOR
 n343            	66.12       	0.1283      	Residential     	;AMR
 n344            	74.28       	0.2664      	Residential     	;AMR
 n345            	71.23       	0.05256     	Residential     	;AMR
 n346            	67.93       	0.17856     	Residential     	;AMR
 n347            	73.6617     	0.0198      	Residential     	;AMR
 n348            	74.1128     	0.02988     	Residential     	;AMR
 n349            	74.564      	0.05976     	Residential     	;AMR
 n350            	75.0152     	0.20844     	Residential     	;AMR
 n351            	75.4663     	0.3924      	Residential     	;AMR
 n352            	74.1103     	0.1332      	Residential     	;AMR
 n353            	73.5455     	0.29268     	Residential     	;AMR
 n354            	73.9127     	0.12312     	Residential     	;AMR
 n355            	66.4555     	0.43812     	Residential     	;AMR
 n356            	67.3414     	0.1242      	Residential     	;AMR
 n357            	69.745      	0.10224     	Residential     	;AMR
 n358            	75.9841     	0.55008     	Residential     	;AMR
 n359            	76.0507     	0.38808     	Residential     	;AMR
 n360            	64.9738     	0.2682      	Residential     	;AMR
 n361            	65.4644     	0.1134      	Residential     	;AMR
 n362            	74.0188     	0.00576     	Residential     	;AMR
 n363            	73.6907     	0.15444     	Residential     	;AMR
 n364            	63.4409     	0.09936     	Residential     	;AMR
 n365            	63.8231     	0.11052     	Residential     	;AMR
 n366            	61.8702     	0.1638      	Residential     	;AMR
 n367            	61.7504     	0.04489     	Residential     	;AMR
 n368            	71.0896     	0.11556     	Residential     	;AMR
 n369            	60.5924     	0.17784     	Residential     	;AMR
 n370            	60.5913     	0.04027     	Residential     	;AMR
 n371            	73.8213     	0.07056     	Residential     	;AMR
 n372            	65.8656     	0.036       	Residential     	;AMR
 n373            	59.6553     	0.0306      	Residential     	;AMR
 n374            	74.9737     	0.11268     	Residential     	;AMR
 n375            	73.8301     	0.05868     	Residential     	;AMR
 n376            	72.6865     	0.12816     	Residential     	;AMR
 n377            	62.9179     	0.0         	Residential     	;AMR
 n378            	68.9578     	0.01368     	Residential     	;AMR
 n379            	70.0939     	0.0972      	Residential     	;AMR
 n380            	61.2341     	0.16812     	Residential     	;AMR
 n381            	74.0464     	0.23004     	Residential     	;AMR
 n382            	72.7629     	0.1476      	Residential     	;AMR
 n383            	71.4794     	0.0846      	Residential     	;AMR
 n384            	69.5445     	0.21024     	Residential     	;AMR
 n385            	66.8891     	0.04896     	Residential     	;AMR
 n386            	59.3943     	0.24876     	Residential     	;AMR
 n387            	64.9448     	0.16092     	Residential     	;AMR
 n388            	63.7718     	0.29851     	Residential     	;AMR
 n389            	67.0238     	0.16812     	Residential     	;AMR
 n390            	38.164      	0.1278      	Residential     	;NULL
 n391            	37.6252     	0.12024     	Residential     	;NULL
 n392            	37.0865     	0.07148     	Residential     	;NULL
 n393            	38.8775     	0.07258     	Residential     	;NULL
 n394            	39.0521     	0.08705     	Residential     	;NULL
 n395            	39.2268     	0.09466     	Residential     	;NULL
 n396            	39.4015     	0.04786     	Residential     	;NULL
 n397            	39.5761     	0.1382      	Residential     	;NULL
 n398            	39.7508     	0.15822     	Residential     	;NULL
 n399            	39.9254     	0.00252     	Residential     	;NULL
 n400            	40.257      	0.11056     	Residential     	;NULL
 n401            	40.4005     	0.31273     	Residential     	;NULL
 n402            	41.2645     	0.27742     	Residential     	;NULL
 n403            	42.4154     	0.30726     	Residential     	;NULL
 n404            	43.5664     	0.19537     	Residential     	;NULL
 n405            	34.7226     	0.16709     	Residential     	;NULL
 n406            	29.9762     	0.12148     	Residential     	;NULL
 n407            	31.6562     	0.16337     	Residential     	;NULL
 n408            	36.3159     	0.29081     	Residential     	;NULL
 n409            	42.1242     	0.04237     	Residential     	;NULL
 n410            	42.8344     	0.06212     	Residential     	;PRESSURE SENSOR
 n411            	41.9643     	0.27335     	Residential     	;NULL
 n412            	32.6351     	0.25614     	Residential     	;NULL
 n413            	32.5684     	0.05326     	Residential     	;NULL
 n414            	34.4274     	0.19237     	Residential     	;NULL
 n415            	28.5315     	0.4277      	Residential     	;PRESSURE SENSOR
 n416            	40.7274     	0.06138     	Residential     	;NULL
 n417            	40.9109     	0.13871     	Residential     	;NULL
 n418            	35.4624     	0.018       	Residential     	;NULL
 n419            	34.9649     	0.03013     	Residential     	;NULL
 n420            	37.454      	0.12514     	Residential     	;NULL
 n421            	37.9009     	0.06395     	Residential     	;NULL
 n422            	38.3478     	0.13797     	Residential     	;NULL
 n423            	38.7946     	0.3735      	Residential     	;NULL
 n424            	39.2415     	0.05476     	Residential     	;NULL
 n425            	34.3122     	0.13761     	Residential     	;NULL
 n426            	33.7011     	0.10228     	Residential     	;NULL
 n427            	36.5315     	0.10246     	Residential     	;NULL
 n428            	36.8386     	0.09475     	Residential     	;NULL
 n429            	37.1457     	0.00324     	Residential     	;PRESSURE SENSOR
 n430            	37.4527     	0.12317     	Residential     	;NULL
 n431            	37.7598     	0.01656     	Residential     	;NULL
 n432            	38.0669     	0.12276     	Residential     	;NULL
 n433            	38.374      	0.26546     	Residential     	;NULL
 n434            	40.5972     	0.36144     	Residential     	;NULL
 n435            	28.8164     	0.22423     	Residential     	;NULL
 n436            	34.2205     	0.07918     	Residential     	;NULL
 n437            	32.5424     	0.03933     	Residential     	;NULL
 n438            	39.8942     	0.14116     	Residential     	;NULL
 n439            	30.7936     	0.14146     	Residential     	;NULL
 n440            	34.2919     	0.05306     	Residential     	;NULL
 n441            	34.6102     	0.12953     	Residential     	;NULL
 n442            	34.9284     	0.0         	Residential     	;NULL
 n443            	29.0953     	0.0918      	Residential     	;NULL
 n444            	28.9522     	0.16268     	Residential     	;NULL