; Filename: basp/Water/Water.inp
; WNTR: 0.3.0
; Created: 2021-10-25 12:03:39
[TITLE]
Export input file via plugin ExportEpanetInpFiles.

[JUNCTIONS]
;ID                      Elevation       Demand Pattern                 
 n1                           73.2105         0.33012 Residential                ;
 n2                           73.8737         0.16992 Residential                ;
 n3                           73.1782          0.1908 Residential                ;
 n4                           68.2608          0.7506 Residential                ;
 n5                           65.5695          0.2322 Residential                ;
 n6                           70.9095          0.2466 Residential                ;
 n7                           75.9175         0.37836 Residential                ;
 n8                           64.4833         0.30132 Residential                ;
 n9                           69.2626         0.40464 Residential                ;
 n10                          74.3469         0.08424 Residential                ;
 n11                          63.0588         0.54432 Residential                ;
 n12                          68.2274         0.05832 Residential                ;
 n13                          61.9901          0.2358 Residential                ;
 n14                          68.5805         0.01944 Residential                ;
 n15                          70.9492         0.19152 Residential                ;
 n16                          68.7986         0.09648 Residential                ;
 n17                          60.5935         0.44892 Residential                ;
 n18                           67.142         0.07236 Residential                ;
 n19                          73.3626         0.12924 Residential                ;
 n20                          65.9549         0.14436 Residential                ;
 n21                          59.6849         0.06084 Residential                ;
 n22                          76.1173         0.15084 Residential                ;
 n23                          64.2052         0.02869 Residential                ;
 n24                          67.8217         0.04392 Residential                ;
 n25                          58.9717         0.34747 Residential                ;
 n26                          61.6305         0.00468 Residential                ;
 n27                          65.7763         0.13068 Residential                ;
 n28                          61.4047               0 Residential                ;
 n29                          71.5429         0.04896 Residential                ;
 n30                          75.3299         0.30564 Residential                ;
 n31                          65.0059         0.11628 Residential                ;
 n32                           71.159         0.07992 Residential                ;
 n33                          60.5902         0.00288 Residential                ;
 n34                          65.8482         0.11232 Residential                ;
 n35                          59.6258               0 Residential                ;
 n36                          70.1959          0.2664 Residential                ;
 n37                          63.9172          0.0846 Residential                ;
 n38                          58.5794         0.18889 Residential                ;
 n39                          62.9791         0.01656 Residential                ;
 n40                          60.2093           0.342 Residential                ;
 n41                          69.2961         0.17028 Residential                ;
 n42                          61.0635           0.243 Residential                ;
 n43                          61.8585         0.11808 Residential                ;
 n44                          66.1177         0.03888 Residential                ;
 n45                          62.5989         0.27288 Residential                ;
 n46                          38.8781         0.06966 Residential                ;
 n47                          38.7028         0.14616 Residential                ;
 n48                          40.1135         0.21785 Residential                ;
 n49                          34.8665         0.10363 Residential                ;
 n50                          44.7174         0.38988 Residential                ;
 n51                          29.8508          0.3334 Residential                ;
 n52                          33.2106         0.04891 Residential                ;
 n53                          29.1285         0.29952 Residential                ;
 n54                          36.6718          0.0848 Residential                ;
 n55                          43.7044         0.25355 Residential                ;
 n56                          32.7019         0.31822 Residential                ;
 n57                          34.5788         0.06806 Residential                ;
 n58                          30.1017         0.16375 Residential                ;
 n59                           40.544         0.13478 Residential                ;
 n60                          36.5477         0.08755 Residential                ;
 n61                          36.5714         0.02633 Residential                ;
 n62                            35.96         0.07906 Residential                ;
 n63                          37.0071         0.15595 Residential                ;
 n64                          34.9234         0.15692 Residential                ;
 n65                          36.2244         0.04244 Residential                ;
 n66                           34.276         0.07326 Residential                ;
 n67                          32.5016         0.40471 Residential                ;
 n68                          41.0943         0.17813 Residential                ;
 n69                          27.7774         0.37723 Residential                ;
 n70                          29.8554          0.1782 Residential                ;
 n71                          30.0823         0.24183 Residential                ;
 n72                          34.4673         0.01949 Residential                ;
 n73                          33.0899         0.03154 Residential                ;
 n74                          32.3582          0.0491 Residential                ;
 n75                          40.1001         0.02443 Residential                ;
 n76                          30.5603         0.09745 Residential                ;
 n77                          33.9737         0.02948 Residential                ;
 n78                          29.2383         0.09988 Residential                ;
 n79                          32.7267         0.18274 Residential                ;
 n80                          27.7113          0.2583 Residential                ;
 n81                          31.0269         0.17222 Residential                ;
 n82                          39.6884         0.17608 Residential                ;
 n83                          35.7824           0.153 Residential                ;
 n84                          28.8092         0.14195 Residential                ;
 n85                          38.6811         0.00108 Residential                ;
 n86                          38.1149         0.18198 Residential                ;
 n87                          35.2466         0.00612 Residential                ;
 n88                          34.2301         0.07697 Residential                ;
 n89                          31.7913         0.01813 Residential                ;
 n90                          36.3955         0.10692 Residential                ;
 n91                          33.0649         0.01332 Residential                ;
 n92                          33.1049         0.01573 Residential                ;
 n93                          29.3998         0.16114 Residential                ;
 n94                          27.5188         0.53474 Residential                ;
 n95                          25.4416               0 Residential                ;
 n96                          24.1924          0.1387 Residential                ;
 n97                          27.2125         0.42466 Residential                ;
 n98                          25.5648         0.12312 Residential                ;
 n99                          23.3478         0.17172 Residential                ;
 n100                         25.0658         0.36382 Residential                ;
 n101                          24.157           0.126 Residential                ;
 n102                         23.6941         0.09448 Residential                ;
 n103                         24.3635         0.08467 Residential                ;
 n104                         20.9592               0 Residential                ;
 n105                          24.022          0.0014 Residential                ;
 n106                         23.5008         0.11196 Residential                ;
 n107                          23.541         0.00074 Residential                ;
 n108                         19.8166               0 Residential                ;
 n109                         23.4984        0.000578 Residential                ;
 n110                         23.8384         0.02804 Residential                ;
 n111                         25.9972         0.36893 Residential                ;
 n112                         23.5656         0.11707 Residential                ;
 n113                         23.6071         0.12566 Residential                ;
 n114                         20.4764         0.08237 Residential                ;
 n115                         23.8321         0.00648 Residential                ;
 n116                          20.911         0.19019 Residential                ;
 n117                         26.9614         0.25834 Residential                ;
 n118                         19.0993               0 Residential                ;
 n119                         20.0895         0.24257 Residential                ;
 n120                         22.6201         0.08496 Residential                ;
 n121                         19.3967         0.00024 Residential                ;
 n122                         22.4946         0.10166 Residential                ;
 n123                         21.5338         0.13435 Residential                ;
 n124                         22.6501         0.01188 Residential                ;
 n125                         20.5899            0.05 Residential                ;
 n126                          19.167         0.23803 Residential                ;
 n127                         19.1187         0.00596 Residential                ;
 n128                         22.0969         0.11182 Residential                ;
 n129                          25.901         0.14202 Residential                ;
 n130                         22.1732          0.2047 Residential                ;
 n131                          19.552         0.11822 Residential                ;
 n132                         20.3762         0.13212 Residential                ;
 n133                         22.5783         0.27927 Residential                ;
 n134                         19.2113         0.00896 Residential                ;
 n135                         19.1205         0.11318 Residential                ;
 n136                         20.3013         0.33602 Residential                ;
 n137                         19.6856         0.03676 Residential                ;
 n138                          20.838         0.02727 Residential                ;
 n139                         19.6632               0 Residential                ;
 n140                         27.3504         0.11668 Residential                ;
 n141                         23.1252         0.21607 Residential                ;
 n142                         19.6239         0.03985 Residential                ;
 n143                         20.8754         0.12398 Residential                ;
 n144                         26.9472         0.33964 Residential                ;
 n145                         22.1344         0.12636 Residential                ;
 n146                         21.8276           0.173 Residential                ;
 n147                         19.9725          0.1579 Residential                ;
 n148                         20.1477           0.072 Residential                ;
 n149                         20.9496          0.0563 Residential                ;
 n150                         22.6861          0.0171 Residential                ;
 n151                         19.8447         0.03215 Residential                ;
 n152                         19.1334               0 Residential                ;
 n153                         22.6394         0.21319 Residential                ;
 n154                         20.3582         0.16153 Residential                ;
 n155                         26.3852         0.08989 Residential                ;
 n156                         20.0619          0.0168 Residential                ;
 n157                         20.4464          0.0268 Residential                ;
 n158                         19.7472               0 Residential                ;
 n159                         27.0053         0.14767 Residential                ;
 n160                         20.2078         0.23962 Residential                ;
 n161                         21.3197               0 Residential                ;
 n162                         26.9729         0.02106 Residential                ;
 n163                         21.6096         0.04685 Residential                ;
 n164                         20.2745         0.17852 Residential                ;
 n165                         19.8081         0.32357 Residential                ;
 n166                          20.275         0.23162 Residential                ;
 n167                         22.5413         0.15163 Residential                ;
 n168                         20.4384         0.04698 Residential                ;
 n169                         27.0181         0.06359 Residential                ;
 n170                         23.2339         0.56804 Residential                ;
 n171                         20.6067         0.21852 Residential                ;
 n172                         19.1601         0.05054 Residential                ;
 n173                         21.0596         0.17939 Residential                ;
 n174                         21.4292               0 Residential                ;
 n175                         19.3536         0.11794 Residential                ;
 n176                         27.7038         0.11452 Residential                ;
 n177                         19.3479         0.16733 Residential                ;
 n178                         21.9026         0.03784 Residential                ;
 n179                         19.4895               0 Residential                ;
 n180                         22.7778          0.0212 Residential                ;
 n181                         23.7049         0.12924 Residential                ;
 n182                          25.085         0.16182 Residential                ;
 n183                         19.3859         0.13435 Residential                ;
 n184                         27.2441         0.05353 Residential                ;
 n185                         19.0789         0.15725 Residential                ;
 n186                         21.8196         0.11016 Residential                ;
 n187                         19.0349         0.02351 Residential                ;
 n188                         18.8768         0.00036 Residential                ;
 n189                         18.6826         0.11642 Residential                ;
 n190                         19.6529         0.05832 Residential                ;
 n191                         27.4799         0.34571 Residential                ;
 n192                          22.206         0.25493 Residential                ;
 n193                         19.7041         0.02736 Residential                ;
 n194                         19.7601         0.02025 Residential                ;
 n195                         16.8285          0.0994 Residential                ;
 n196                         19.8226         0.07574 Residential                ;
 n197                         16.5799               0 Residential                ;
 n198                         22.8492               0 Residential                ;
 n199                         16.5475         0.15941 Residential                ;
 n200                         18.2407         0.14288 Residential                ;
 n201                          19.106         0.06221 Residential                ;
 n202                         17.9436         0.02819 Residential                ;
 n203                         22.0332          0.1908 Residential                ;
 n204                          16.436         0.06998 Residential                ;
 n205                          6.9791               0 Residential                ;
 n206                          7.9123               0 Residential                ;
 n207                          2.0579               0 Residential                ;
 n208                          5.9061               0 Residential                ;
 n209                          4.6117               0 Residential                ;
 n210                          2.7477               0 Residential                ;
 n211                          4.8451               0 Residential                ;
 n212                          2.3488               0 Residential                ;
 n213                          3.2427               0 Residential                ;
 n214                         16.8316         0.00894 Residential                ;
 n215                          2.0066               0 Residential                ;
 n216                          2.4091               0 Residential                ;
 n217                          1.8712               0 Residential                ;
 n218                         29.6006         0.13648 Residential                ;
 n219                         28.4518         0.12053 Residential                ;
 n220                         30.7523         0.18137 Residential                ;
 n221                         28.2232         0.08975 Residential                ;
 n222                         28.0585         0.00828 Residential                ;
 n223                         28.5629         0.04495 Residential                ;
 n224                         26.9114         0.11122 Residential                ;
 n225                            25.5         0.19604 Residential                ;
 n226                           6.113               0 Residential                ;
 n227                          5.7901               0 Residential                ;
 n228                         27.3852         0.10226 Residential                ;
 n229                         21.5781         0.17842 Residential                ;
 n230                         28.3962         0.04198 Residential                ;
 n231                          4.8639               0 Residential                ;
 n232                         26.0377         0.04068 Residential                ;
 n233                          4.4157               0 Residential                ;
 n234                          5.1036         0.09742 Residential                ;
 n235                         24.1047         0.27477 Residential                ;
 n236                          3.0871               0 Residential                ;
 n237                          4.0834         0.13003 Residential                ;
 n238                         24.6076         0.34164 Residential                ;
 n239                         22.9677         0.23594 Residential                ;
 n240                         28.8065         0.20297 Residential                ;
 n241                         22.1953         0.17762 Residential                ;
 n242                          2.3582               0 Residential                ;
 n243                          2.6564               0 Residential                ;
 n244                         21.2523         0.58954 Residential                ;
 n245                          28.661         0.10076 Residential                ;
 n246                          1.9044               0 Residential                ;
 n247                           2.117               0 Residential                ;
 n248                           29.31         0.16481 Residential                ;
 n249                         28.5347         0.04522 Residential                ;
 n250                          28.414         0.08975 Residential                ;
 n251                         21.3004           0.189 Residential                ;
 n252                         24.7044         0.13626 Residential                ;
 n253                          2.2871         0.18871 Residential                ;
 n254                          2.2175         0.00324 Residential                ;
 n255                         20.9378         0.00072 Residential                ;
 n256                          17.777         0.24264 Residential                ;
 n257                         28.3219         0.05373 Residential                ;
 n258                         24.7483         0.05029 Residential                ;
 n259                          24.601               0 Residential                ;
 n260                         17.7457          0.1265 Residential                ;
 n261                         16.7006         0.14148 Residential                ;
 n262                         24.2606         0.21595 Residential                ;
 n263                         24.6696         0.10402 Residential                ;
 n264                         20.6282               0 Residential                ;
 n265                         28.4319         0.03071 Residential                ;
 n266                          19.968         0.32069 Residential                ;
 n267                         23.3745         0.13117 Residential                ;
 n268                         21.9354         0.11255 Residential                ;
 n269                         26.1653         0.09756 Residential                ;
 n270                         20.8216          0.1773 Residential                ;
 n271                          34.039         0.14744 Residential                ;
 n272                         20.1368         0.13003 Residential                ;
 n273                         24.5091         0.26946 Residential                ;
 n274                         32.8648         0.01168 Residential                ;
 n275                         29.2533         0.08345 Residential                ;
 n276                         21.3002         0.20909 Residential                ;
 n277                          22.448         0.01692 Residential                ;
 n278                         22.0132         0.11088 Residential                ;
 n279                         21.7544         0.08381 Residential                ;
 n280                         29.6042         0.11866 Residential                ;
 n281                         31.2675         0.11993 Residential                ;
 n282                         30.4949         0.15779 Residential                ;
 n283                         27.4233          0.1444 Residential                ;
 n284                         26.3666         0.18079 Residential                ;
 n285                         20.4612          0.1896 Residential                ;
 n286                         29.0388         0.25715 Residential                ;
 n287                         33.0444               0 Residential                ;
 n288                         21.6218             3.5 Residential                ;
 n289                         27.4463          0.0464 Residential                ;
 n290                         24.6247         0.15876 Residential                ;
 n291                         32.4985         0.15656 Residential                ;
 n292                         31.9495         0.08428 Residential                ;
 n293                         26.5282          0.1674 Residential                ;
 n294                         26.5192         0.04099 Residential                ;
 n295                         30.8274         0.14575 Residential                ;
 n296                         32.1966          0.0945 Residential                ;
 n297                         23.3934         0.18839 Residential                ;
 n298                         34.8909               0 Residential                ;
 n299                         26.7205         0.18144 Residential                ;
 n300                         34.7777               0 Residential                ;
 n301                           23.52          0.0682 Residential                ;
 n302                         23.3123         0.16222 Residential                ;
 n303                         34.4994               0 Residential                ;
 n304                          32.978         0.10766 Residential                ;
 n305                         25.4869         0.22993 Residential                ;
 n306                         23.6839         0.22514 Residential                ;
 n307                         31.4204         0.14926 Residential                ;
 n308                         23.3861         0.09626 Residential                ;
 n309                         23.1678         0.26712 Residential                ;
 n310                           22.36         0.14803 Residential                ;
 n311                         29.5998         0.01915 Residential                ;
 n312                         22.0779         0.13349 Residential                ;
 n313                         21.7616         0.15516 Residential                ;
 n314                         29.6902         0.08208 Residential                ;
 n315                         22.7969         0.14105 Residential                ;
 n316                         29.3551         0.11466 Residential                ;
 n317                         22.2884         0.08093 Residential                ;
 n318                         23.5639         0.16934 Residential                ;
 n319                         30.4617         0.05263 Residential                ;
 n320                         28.2142         0.10174 Residential                ;
 n321                          21.897         0.11131 Residential                ;
 n322                         26.9371               0 Residential                ;
 n323                         26.0702         0.21002 Residential                ;
 n324                         24.9686          0.0126 Residential                ;
 n325                         24.3047         0.19022 Residential                ;
 n326                         23.6854         0.18718 Residential                ;
 n327                         22.2849         0.21555 Residential                ;
 n328                         22.1954          0.0527 Residential                ;
 n329                         24.3743          0.0072 Residential                ;
 n330                         22.0274          0.0851 Residential                ;
 n331                         22.9257         0.03082 Residential                ;
 n332                              18          0.0058 Residential                ;
 n333                              18         0.03938 Residential                ;
 n334                              18         0.07502 Residential                ;
 n335                           27.45         0.12953 Residential                ;
 n336                              26         0.30726 Residential                ;
 n337                             4.1               0 Residential                ;
 n338                            28.2               0 Residential                ;
 n339                            22.8         0.21607 Residential                ;
 n340                            30.1         0.45761 Residential                ;
 n341                            22.8         0.00216 Residential                ;
 n342                           27.36               0 Residential                ;
 n343                           66.12          0.1283 Residential                ;
 n344                           74.28          0.2664 Residential                ;
 n345                           71.23         0.05256 Residential                ;
 n346                           67.93         0.17856 Residential                ;
 n347                         73.6617          0.0198 Residential                ;
 n348                         74.1128         0.02988 Residential                ;
 n349                          74.564         0.05976 Residential                ;
 n350                         75.0152         0.20844 Residential                ;
 n351                         75.4663          0.3924 Residential                ;
 n352                         74.1103          0.1332 Residential                ;
 n353                         73.5455         0.29268 Residential                ;
 n354                         73.9127         0.12312 Residential                ;
 n355                         66.4555         0.43812 Residential                ;
 n356                         67.3414          0.1242 Residential                ;
 n357                          69.745         0.10224 Residential                ;
 n358                         75.9841         0.55008 Residential                ;